[TITLE]
;Created by Giswater
;Giswater version:     3.5.003
;Project name:
;Result name:          r1
;Export mode:          NODE (MANDATORY NODARCS)
;Demand type:          NODE ESTIMATED
;Pattern method:       UNIQUE ESTIMATED (NODE)
;Valve mode:           INVENTORY VALUES
;Default values:       false
;Advanced settings:    false
;Datetime:             2021-04-29 16:52:41
;User:                 user


[JUNCTIONS]
;ID              	Elev        	Demand      	Pattern         
 1001            	32.587      	0.029364    	                	;
 1002            	25.238      	0.014036    	                	;
 1003            	29.885      	0.143745    	                	;
 1004            	35.074      	0.048418    	                	;
 1005            	42.921      	0.03189     	                	;
 1006            	53.614      	0.004236    	                	;
 1008            	53.071      	0.009109    	                	;
 1009            	45.000      	0           	                	;
 1010            	51.920      	0.042418    	                	;
 1011            	57.092      	0.068255    	                	;
 1012            	47.570      	0           	                	;
 1013            	37.874      	0.021455    	                	;
 1014            	22.381      	0.031836    	                	;
 1015            	23.204      	0.0226      	                	;
 1016            	25.000      	0.049782    	                	;
 1017            	30.000      	0.082382    	                	;
 1018            	33.080      	0.098709    	                	;
 1019            	34.390      	0.011455    	                	;
 1020            	38.710      	0.037873    	                	;
 1021            	37.651      	0.037873    	                	;
 1022            	37.932      	0.022455    	                	;
 1023            	43.658      	0.139855    	                	;
 1024            	52.377      	0.0942      	                	;
 1025            	55.385      	0.029745    	                	;
 1026            	56.553      	0.055527    	                	;
 1027            	54.986      	0.023273    	                	;
 1028            	54.089      	0.005745    	                	;
 1029            	54.723      	0.091691    	                	;
 1030            	54.889      	0.018236    	                	;
 1031            	54.279      	0.036091    	                	;
 1032            	51.206      	0.013855    	                	;
 1033            	50.310      	0.030164    	                	;
 1034            	58.289      	0.103345    	                	;
 1035            	53.919      	0.070782    	                	;
 1036            	55.105      	0.002582    	                	;
 1037            	50.841      	0.055527    	                	;
 1038            	47.395      	0.041073    	                	;
 1039            	45.000      	0.065255    	                	;
 1040            	40.000      	0.075618    	                	;
 1041            	53.491      	0.060909    	                	;
 1042            	52.494      	0.027945    	                	;
 1043            	49.832      	0.037255    	                	;
 1044            	45.862      	0.068855    	                	;
 1045            	44.603      	0.047891    	                	;
 1046            	44.143      	0.029673    	                	;
 1047            	48.315      	0.033945    	                	;
 1048            	44.234      	0.098673    	                	;
 1049            	39.765      	0.066927    	                	;
 1050            	38.586      	0.094764    	                	;
 1051            	35.200      	0.165455    	                	;
 1052            	27.216      	0.085764    	                	;
 1053            	30.134      	0.027873    	                	;
 1054            	28.362      	0           	                	;
 1055            	26.535      	0.021018    	                	;
 1056            	31.687      	0.016945    	                	;
 1057            	32.248      	0.016945    	                	;
 1058            	37.441      	0.032018    	                	;
 1059            	39.436      	0.030018    	                	;
 1060            	47.713      	0.035891    	                	;
 1061            	50.000      	0.0118      	                	;
 1062            	50.000      	0.034473    	                	;
 1063            	60.000      	0.010018    	                	;
 1064            	60.000      	0.010018    	                	;
 1065            	57.917      	0.001327    	                	;
 1066            	57.261      	0.000564    	                	;
 1067            	35.026      	0.045782    	                	;
 1068            	38.542      	0.0472      	                	;
 1069            	38.686      	0.046345    	                	;
 1070            	39.870      	0.005491    	                	;
 1071            	39.809      	0.029873    	                	;
 1072            	53.652      	0.065382    	                	;
 1073            	20.016      	0           	                	;
 1074            	38.758      	0.026891    	                	;
 1075            	39.020      	0.022673    	                	;
 1076            	45.000      	0.068855    	                	;
 1077            	39.822      	0.038636    	                	;
 1079            	37.395      	0.0035      	                	;
 1080            	42.950      	0           	                	;
 1081            	67.500      	0           	                	;
 1082            	49.880      	0           	                	;
 1083_n2a_1      	22.335      	0           	                	;
 1083_n2a_2      	22.335      	0           	                	;
 1084            	38.600      	0           	                	;
 1086            	37.945      	0           	                	;
 1087            	37.928      	0           	                	;
 1088            	42.935      	0           	                	;
 1089            	42.915      	0           	                	;
 1090            	54.990      	0           	                	;
 1091            	54.975      	0           	                	;
 1092            	23.210      	0           	                	;
 1093            	37.648      	0           	                	;
 1094            	37.655      	0           	                	;
 1095            	31.689      	0           	                	;
 1096            	31.683      	0           	                	;
 1103            	38.420      	0           	                	;
 1105_n2a_2      	53.850      	0           	                	;
 1105_n2a_1      	53.850      	0           	                	;
 1106            	20.300      	0.075       	                	;
 1107_n2a_1      	69.150      	0           	                	;
 1107_n2a_2      	69.150      	0           	                	;
 1108            	39.400      	0           	                	;
 1109            	38.760      	0           	                	;
 1110            	39.050      	0           	                	;
 1111            	39.030      	0           	                	;
 1112            	39.790      	0           	                	;
 1113            	39.810      	0           	                	;
 1114            	60.020      	0           	                	;
 1115            	45.855      	0           	                	;
 113852          	42.500      	0           	                	;
 113873          	68.250      	0           	                	;
 113880          	68.250      	0           	                	;
 113883          	68.250      	0           	                	;
 113908          	47.000      	0           	                	;
 128             	54.000      	0           	                	;
 131             	50.540      	0           	                	;
 134             	31.250      	0           	                	;
 138             	32.000      	0.055501    	                	;
 41              	39.450      	0           	                	;
 42              	23.350      	0           	                	;

[RESERVOIRS]
;ID              	Head        	Pattern         
 1101            	75.000      	                	;
 1097            	53.850      	                	;

[TANKS]
;ID              	Elevation   	InitLevel   	MinLevel    	MaxLevel    	Diameter    	MinVol      	VolCurve
 113766          	68.250      	1.0000      	0.0000      	3.5000      	12.0000     	0.0000      	                	;

[PIPES]
;ID              	Node1           	Node2           	Length      	Diameter    	Roughness   	MinorLoss   	Status
 113854          	113852          	1009            	39.750      	99.000      	0.025000    	0.000000    	OPEN  	;
 113857          	1111            	113852          	94.180      	99.000      	0.025000    	0.000000    	OPEN  	;
 113875          	113873          	1081            	11.370      	204.000     	0.030000    	0.000000    	OPEN  	;
 113881          	1105_n2a_2      	113880          	15.550      	99.000      	0.002500    	0.000000    	OPEN  	;
 113884          	1107_n2a_1      	113883          	21.290      	144.000     	0.002500    	0.000000    	OPEN  	;
 113905          	113883          	113766          	1.400       	144.000     	0.002500    	0.000000    	OPEN  	;
 113906          	113766          	113873          	2.630       	204.000     	0.030000    	0.000000    	OPEN  	;
 113907          	113880          	113766          	2.090       	99.000      	0.002500    	0.000000    	OPEN  	;
 113909          	1081            	113908          	105.830     	204.000     	0.030000    	0.000000    	OPEN  	;
 113910          	113908          	1080            	52.860      	204.000     	0.030000    	0.000000    	OPEN  	;
 113921          	1052            	42              	99.470      	144.000     	0.002500    	0.000000    	OPEN  	;
 113922          	42              	1015            	26.430      	144.000     	0.002500    	0.000000    	OPEN  	;
 113935          	1074            	41              	29.000      	99.000      	0.002500    	0.000000    	OPEN  	;
 113936          	41              	1108            	71.060      	99.000      	0.002500    	0.000000    	OPEN  	;
 114460          	1034            	1064            	151.460     	99.000      	0.002500    	0.000000    	OPEN  	;
 129             	1035            	128             	12.270      	56.700      	0.025000    	0.000000    	OPEN  	;
 130             	128             	1036            	97.700      	56.700      	0.025000    	0.000000    	OPEN  	;
 132             	1035            	131             	77.990      	56.700      	0.025000    	0.000000    	OPEN  	;
 133             	131             	1062            	22.640      	56.700      	0.025000    	0.000000    	OPEN  	;
 135             	1051            	134             	81.640      	56.700      	0.002500    	0.000000    	OPEN  	;
 136             	134             	1003            	35.770      	56.700      	0.002500    	0.000000    	OPEN  	;
 139             	1004            	138             	58.300      	99.000      	0.002500    	0.000000    	OPEN  	;
 140             	138             	1095            	17.810      	99.000      	0.002500    	0.000000    	OPEN  	;
 2001            	1014            	1015            	21.170      	153.000     	0.030000    	0.000000    	OPEN  	;
 2002            	1014            	1016            	73.770      	99.000      	0.002500    	0.000000    	OPEN  	;
 2003            	1016            	1017            	136.220     	99.000      	0.002500    	0.000000    	OPEN  	;
 2004            	1017            	1018            	123.090     	99.000      	0.002500    	0.000000    	OPEN  	;
 2005            	1018            	1067            	65.300      	99.000      	0.002500    	0.000000    	OPEN  	;
 2006            	1087            	1067            	106.900     	56.700      	0.002500    	0.000000    	OPEN  	;
 2009            	1023            	1048            	77.760      	56.700      	0.025000    	0.000000    	OPEN  	;
 2010            	1023            	1012            	72.840      	99.000      	0.002500    	0.000000    	OPEN  	;
 2011            	1012            	1024            	87.570      	99.000      	0.002500    	0.000000    	OPEN  	;
 2012            	1024            	1072            	73.840      	56.700      	0.025000    	0.000000    	OPEN  	;
 2013            	1024            	1025            	56.210      	99.000      	0.002500    	0.000000    	OPEN  	;
 2014            	1025            	1011            	47.250      	99.000      	0.025000    	0.000000    	OPEN  	;
 2015            	1011            	1026            	119.360     	99.000      	0.025000    	0.000000    	OPEN  	;
 2016            	1026            	1030            	49.030      	99.000      	0.025000    	0.000000    	OPEN  	;
 2017            	1030            	1031            	63.610      	99.000      	0.025000    	0.000000    	OPEN  	;
 2018            	1031            	1010            	62.430      	99.000      	0.025000    	0.000000    	OPEN  	;
 2019            	1010            	1047            	74.180      	99.000      	0.025000    	0.000000    	OPEN  	;
 2020            	1047            	1046            	68.740      	99.000      	0.025000    	0.000000    	OPEN  	;
 2021            	1046            	1113            	68.470      	99.000      	0.025000    	0.000000    	OPEN  	;
 2022            	1112            	1077            	30.370      	99.000      	0.002500    	0.000000    	OPEN  	;
 2023            	1077            	1049            	75.940      	99.000      	0.002500    	0.000000    	OPEN  	;
 2024            	1049            	1020            	68.930      	99.000      	0.002500    	0.000000    	OPEN  	;
 2025            	1020            	1021            	20.930      	99.000      	0.002500    	0.000000    	OPEN  	;
 2026            	1094            	1050            	124.200     	99.000      	0.002500    	0.000000    	OPEN  	;
 2027            	1050            	1069            	57.750      	99.000      	0.025000    	0.000000    	OPEN  	;
 2028            	1050            	1051            	68.380      	56.700      	0.002500    	0.000000    	OPEN  	;
 2030            	1003            	1052            	63.240      	56.700      	0.002500    	0.000000    	OPEN  	;
 2031            	1069            	1068            	71.040      	99.000      	0.002500    	0.000000    	OPEN  	;
 2032            	1068            	1004            	70.220      	99.000      	0.002500    	0.000000    	OPEN  	;
 2034            	1056            	1057            	16.940      	144.000     	0.002500    	0.000000    	OPEN  	;
 2035            	1096            	1052            	96.310      	144.000     	0.002500    	0.000000    	OPEN  	;
 2037            	1092            	1002            	61.060      	99.000      	0.002500    	0.000000    	OPEN  	;
 2038            	1002            	1055            	39.830      	99.000      	0.002500    	0.000000    	OPEN  	;
 2039            	1055            	1054            	47.510      	99.000      	0.002500    	0.000000    	OPEN  	;
 2040            	1054            	1053            	48.760      	99.000      	0.025000    	0.000000    	OPEN  	;
 2041            	1053            	1001            	63.050      	99.000      	0.025000    	0.000000    	OPEN  	;
 2042            	1001            	1019            	66.400      	99.000      	0.025000    	0.000000    	OPEN  	;
 2043            	1093            	1019            	57.820      	99.000      	0.025000    	0.000000    	OPEN  	;
 2045            	1026            	1091            	16.870      	99.000      	0.002500    	0.000000    	OPEN  	;
 2046            	1090            	1028            	38.810      	99.000      	0.002500    	0.000000    	OPEN  	;
 2047            	1028            	1029            	24.900      	99.000      	0.002500    	0.000000    	OPEN  	;
 2048            	1029            	1034            	102.950     	99.000      	0.002500    	0.000000    	OPEN  	;
 2051            	1114            	1063            	12.490      	56.700      	0.025000    	0.000000    	OPEN  	;
 2052            	1064            	1065            	46.890      	144.000     	0.025000    	0.000000    	OPEN  	;
 2053            	1065            	1066            	18.590      	153.000     	0.030000    	0.000000    	OPEN  	;
 2054            	1065            	1036            	56.060      	144.000     	0.025000    	0.000000    	OPEN  	;
 2055            	1036            	1006            	30.200      	144.000     	0.025000    	0.000000    	OPEN  	;
 2056            	1034            	1035            	76.840      	56.700      	0.025000    	0.000000    	OPEN  	;
 2059            	1028            	1008            	23.750      	99.000      	0.025000    	0.000000    	OPEN  	;
 2060            	1008            	1032            	43.250      	99.000      	0.025000    	0.000000    	OPEN  	;
 2061            	1032            	1009            	136.500     	99.000      	0.025000    	0.000000    	OPEN  	;
 2062            	1029            	1037            	72.740      	56.700      	0.002500    	0.000000    	OPEN  	;
 2063            	1037            	1038            	86.150      	56.700      	0.002500    	0.000000    	OPEN  	;
 2064            	1082            	1062            	14.750      	56.700      	0.002500    	0.000000    	OPEN  	;
 2065            	1062            	1061            	71.330      	56.700      	0.002500    	0.000000    	OPEN  	;
 2066            	1006            	1061            	65.820      	153.000     	0.030000    	0.000000    	OPEN  	;
 2067            	1061            	1060            	46.860      	153.000     	0.030000    	0.000000    	OPEN  	;
 2068            	1088            	1005            	1.780       	153.000     	0.030000    	0.000000    	OPEN  	;
 2069            	1005            	1089            	1.920       	153.000     	0.030000    	0.000000    	OPEN  	;
 2070            	1059            	1058            	31.140      	153.000     	0.030000    	0.000000    	OPEN  	;
 2071            	1058            	1057            	111.770     	153.000     	0.030000    	0.000000    	OPEN  	;
 2072            	1038            	1039            	53.090      	56.700      	0.002500    	0.000000    	OPEN  	;
 2073            	1039            	1040            	98.220      	56.700      	0.025000    	0.000000    	OPEN  	;
 2074            	1040            	1109            	33.990      	56.700      	0.002500    	0.000000    	OPEN  	;
 2076            	1074            	1110            	13.380      	99.000      	0.025000    	0.000000    	OPEN  	;
 2078            	1045            	1044            	78.480      	56.700      	0.025000    	0.000000    	OPEN  	;
 2079            	1115            	1043            	70.450      	56.700      	0.025000    	0.000000    	CLOSED	;
 2080            	1043            	1042            	55.820      	56.700      	0.025000    	0.000000    	OPEN  	;
 2081            	1042            	1041            	37.120      	56.700      	0.025000    	0.000000    	OPEN  	;
 2082            	1041            	1033            	37.900      	56.700      	0.025000    	0.000000    	OPEN  	;
 2083            	1041            	1027            	120.400     	56.700      	0.025000    	0.000000    	OPEN  	;
 2084            	1071            	1070            	27.020      	99.000      	0.002500    	0.000000    	OPEN  	;
 2085            	1070            	1076            	98.750      	56.700      	0.025000    	0.000000    	OPEN  	;
 2086            	1076            	1044            	12.680      	56.700      	0.025000    	0.000000    	OPEN  	;
 2087            	1075            	1070            	112.620     	99.000      	0.025000    	0.000000    	OPEN  	;
 2088            	1086            	1063            	881.120     	56.700      	0.002500    	0.000000    	OPEN  	;
 2089            	1014            	1083_n2a_2      	11.850      	153.000     	0.030000    	0.000000    	OPEN  	;
 2092            	1080            	1005            	13.520      	204.000     	0.030000    	0.000000    	OPEN  	;
 2093            	1038            	1082            	90.640      	56.700      	0.002500    	0.000000    	OPEN  	;
 2094            	1058            	1079            	20.220      	99.000      	0.002500    	0.000000    	OPEN  	;
 2095            	1083_n2a_1      	1106            	36.660      	153.000     	0.030000    	0.000000    	OPEN  	;
 2096            	1084            	1020            	8.580       	99.000      	0.002500    	0.000000    	OPEN  	;
 2097            	1013            	1103            	67.200      	99.000      	0.002500    	0.000000    	OPEN  	;
 2098            	1022            	1086            	3.580       	56.700      	0.002500    	0.000000    	OPEN  	;
 2099            	1087            	1022            	3.240       	56.700      	0.002500    	0.000000    	OPEN  	;
 2100            	1060            	1088            	81.780      	153.000     	0.030000    	0.000000    	OPEN  	;
 2101            	1089            	1059            	60.450      	153.000     	0.030000    	0.000000    	OPEN  	;
 2102            	1027            	1090            	2.550       	99.000      	0.002500    	0.000000    	OPEN  	;
 2103            	1091            	1027            	2.990       	99.000      	0.002500    	0.000000    	OPEN  	;
 2104            	1015            	1092            	2.700       	99.000      	0.002500    	0.000000    	OPEN  	;
 2105            	1093            	1021            	3.220       	99.000      	0.025000    	0.000000    	OPEN  	;
 2106            	1021            	1094            	3.320       	99.000      	0.002500    	0.000000    	OPEN  	;
 2107            	1095            	1056            	3.520       	99.000      	0.002500    	0.000000    	OPEN  	;
 2108            	1056            	1096            	3.730       	144.000     	0.002500    	0.000000    	OPEN  	;
 2202            	1103            	1084            	21.460      	99.000      	0.002500    	0.000000    	OPEN  	;
 2205            	1101            	1107_n2a_2      	24.320      	144.000     	0.002500    	0.000000    	OPEN  	;
 2207            	1097            	1105_n2a_1      	10.520      	99.000      	0.002500    	0.000000    	OPEN  	;
 2208            	1073            	1106            	14.950      	153.000     	0.030000    	0.000000    	OPEN  	;
 2213            	1108            	1059            	2.350       	99.000      	0.002500    	0.000000    	OPEN  	;
 2214            	1075            	1111            	5.040       	99.000      	0.025000    	0.000000    	OPEN  	;
 2215            	1109            	1074            	3.240       	56.700      	0.002500    	0.000000    	OPEN  	;
 2216            	1110            	1075            	3.430       	99.000      	0.025000    	0.000000    	OPEN  	;
 2217            	1113            	1071            	1.670       	99.000      	0.025000    	0.000000    	OPEN  	;
 2218            	1071            	1112            	2.370       	99.000      	0.002500    	0.000000    	OPEN  	;
 2219            	1064            	1114            	1.900       	56.700      	0.025000    	0.000000    	OPEN  	;
 2220            	1044            	1115            	5.000       	56.700      	0.025000    	0.000000    	CLOSED	;

[PUMPS]
;ID              	Node1           	Node2           	Parameters
 1105_n2a      	    1105_n2a_1      	1105_n2a_2      	HEAD PUMP_02	;

[VALVES]
;ID              	Node1           	Node2           	Diameter    	Type	Setting     	MinorLoss   
 1083_n2a        	1083_n2a_2      	1083_n2a_1      	100.000     	PRV 	30.0000     	0.000000    	;
 1107_n2a        	1107_n2a_2      	1107_n2a_1      	100.000     	FCV 	3.0000      	0.000000    	;

[TAGS]

[DEMANDS]
;Junction        	Demand      	Pattern         	Category

[STATUS]
;ID              	Status/Setting
 1107_n2a        	Closed

[PATTERNS]
;ID              	Multipliers

[CURVES]
;ID              	X-Value     	Y-Value
;PUMP: PUMP: PUMP:
 PUMP_02         	10.0000     	50.0000     

[CONTROLS]
;text
;----------



[RULES]
;text
;----------



[ENERGY]
 Global Efficiency  	75
 Global Price       	0
 Demand Charge      	0

[EMITTERS]
;Junction        	Coefficient

[QUALITY]
;Node            	InitQual

[SOURCES]
;Node            	Type        	Quality     	Pattern

[REACTIONS]
;Type     	Pipe/Tank       	Coefficient


[REACTIONS]
 Order Bulk            	1
 Order Tank            	1
 Order Wall            	1
 Global Bulk           	0
 Global Wall           	0
 Limiting Potential    	0
 Roughness Correlation 	0

[MIXING]
;Tank            	Model

[TIMES]
 Duration           	24:00 
 Hydraulic Timestep 	0:30 
 Quality Timestep   	0:05 
 Pattern Timestep   	1:00 
 Pattern Start      	0:00 
 Report Timestep    	1:00 
 Report Start       	0:00 
 Start ClockTime    	12 am
 Statistic          	NONE

[REPORT]
 Status             	Yes
 Summary            	No
 Page               	0

[OPTIONS]
 Units              	LPS
 Headloss           	D-W
 Specific Gravity   	1.00
 Viscosity          	1.00
 Trials             	40.00
 Accuracy           	0.001
 CHECKFREQ          	2.00
 MAXCHECK           	10.00
 DAMPLIMIT          	0.00
 Unbalanced         	Continue 10
 Pattern            	1
 Demand Multiplier  	1.00
 Emitter Exponent   	0.5
 Quality            	NONE mg/L
 Diffusivity        	1
 Tolerance          	0.01

[COORDINATES]
;Node            	X-Coord         	Y-Coord
 1001            	419302.83       	4576321.49      
 1002            	419452.27       	4576453.11      
 1003            	419373.06       	4576526.69      
 1004            	419254.37       	4576614.16      
 1005            	419180.90       	4576761.22      
 1006            	419018.30       	4576871.06      
 1008            	418882.85       	4576679.73      
 1009            	419058.98       	4576643.84      
 1010            	419001.66       	4576530.05      
 1011            	418853.89       	4576501.57      
 1012            	419010.04       	4576396.04      
 1013            	419149.36       	4576249.14      
 1014            	419515.51       	4576480.65      
 1015            	419500.15       	4576495.21      
 1016            	419459.90       	4576432.18      
 1017            	419357.67       	4576342.14      
 1018            	419265.25       	4576260.84      
 1019            	419253.07       	4576277.53      
 1020            	419195.86       	4576304.80      
 1021            	419216.79       	4576304.27      
 1022            	419135.75       	4576238.33      
 1023            	419069.28       	4576354.06      
 1024            	418938.72       	4576445.43      
 1025            	418891.32       	4576473.77      
 1026            	418855.30       	4576620.74      
 1027            	418855.56       	4576640.61      
 1028            	418859.80       	4576680.86      
 1029            	418860.33       	4576705.75      
 1030            	418896.35       	4576599.29      
 1031            	418949.31       	4576564.07      
 1032            	418925.21       	4576671.06      
 1033            	418964.14       	4576609.36      
 1034            	418860.86       	4576807.98      
 1035            	418935.81       	4576793.94      
 1036            	418992.75       	4576887.16      
 1037            	418929.19       	4576687.22      
 1038            	419013.67       	4576670.80      
 1039            	419065.57       	4576659.67      
 1040            	419161.70       	4576639.54      
 1041            	418954.61       	4576573.87      
 1042            	418985.06       	4576552.68      
 1043            	419031.67       	4576521.96      
 1044            	419094.70       	4576516.93      
 1045            	419110.86       	4576593.73      
 1046            	419134.16       	4576484.62      
 1047            	419067.16       	4576499.98      
 1048            	419109.80       	4576419.74      
 1049            	419199.04       	4576373.66      
 1050            	419223.67       	4576431.39      
 1051            	419285.91       	4576448.07      
 1052            	419415.41       	4576573.34      
 1053            	419349.99       	4576363.33      
 1054            	419386.28       	4576395.90      
 1055            	419422.29       	4576426.89      
 1056            	419333.58       	4576622.33      
 1057            	419330.66       	4576639.01      
 1058            	419252.54       	4576704.96      
 1059            	419226.59       	4576722.17      
 1060            	419111.65       	4576807.98      
 1061            	419072.46       	4576833.66      
 1062            	419034.32       	4576773.55      
 1063            	418901.91       	4576950.72      
 1064            	418905.09       	4576936.68      
 1065            	418946.93       	4576919.47      
 1066            	418957.00       	4576935.09      
 1067            	419216.26       	4576217.68      
 1068            	419228.18       	4576559.83      
 1069            	419225.00       	4576488.86      
 1070            	419204.61       	4576509.25      
 1071            	419203.81       	4576482.24      
 1072            	418976.87       	4576507.97      
 1073            	419568.98       	4576470.28      
 1074            	419198.18       	4576632.08      
 1075            	419195.04       	4576615.57      
 1076            	419107.37       	4576516.32      
 1077            	419202.56       	4576449.52      
 1079            	419244.61       	4576687.75      
 1080            	419179.66       	4576769.86      
 1081            	419271.42       	4576868.94      
 1082            	419032.42       	4576759.04      
 1083_n2a_1      	419524.55       	4576488.54      
 1083_n2a_2      	419524.32       	4576488.34      
 1084            	419195.51       	4576296.23      
 1086            	419133.57       	4576241.18      
 1087            	419137.72       	4576235.76      
 1088            	419179.43       	4576762.21      
 1089            	419182.49       	4576760.14      
 1090            	418855.62       	4576643.16      
 1091            	418855.53       	4576637.62      
 1092            	419498.13       	4576493.43      
 1093            	419216.73       	4576301.05      
 1094            	419216.94       	4576307.59      