[TITLE]
;Created by Giswater
;Giswater version:     3.5.017
;Project name:
;Result name:          go2
;Export mode:          NODE (MANDATORY NODARCS)
;Demand type:          NODE ESTIMATED
;Pattern method:       DMA ESTIMATED (NODE)
;Valve mode:           INVENTORY VALUES
;Default values:       false
;Advanced settings:    false
;Datetime:             2021-11-06 06:27:06
;User:                 postgres

[JUNCTIONS]
;node_id             elevation            demand               pattern_id
;----------          ----------           ----------           ----------
1001                 32.587               0.029364             dma02_estimated
1002                 25.238               0.014036             dma02_estimated
1003                 29.885               0.143745             dma02_estimated
1004                 35.074               0.048418             dma02_estimated
1005                 42.921               0.03189              dma02_estimated
1006                 53.614               0.004236             dma02_estimated
1008                 53.071               0.009109             dma02_estimated
1009                 45.000               0                    dma02_estimated
1010                 51.920               0.042418             dma02_estimated
1011                 57.092               0.068255             dma02_estimated
1012                 47.570               0                    dma02_estimated
1013                 37.874               0.021455             dma02_estimated
1014                 22.381               0.031836             dma02_estimated
1015                 23.204               0.0226               dma02_estimated
1016                 25.000               0.049782             dma02_estimated
1017                 30.000               0.082382             dma02_estimated
1018                 33.080               0.098709             dma02_estimated
1019                 34.390               0.011455             dma02_estimated
1020                 38.710               0.037873             dma02_estimated
1021                 37.651               0.037873             dma02_estimated
1022                 37.932               0.022455             dma02_estimated
1023                 43.658               0.139855             dma02_estimated
1024                 52.377               0.0942               dma02_estimated
1025                 55.385               0.029745             dma02_estimated
1026                 56.553               0.055527             dma02_estimated
1027                 54.986               0.023273             dma02_estimated
1028                 54.089               0.005745             dma02_estimated
1029                 54.723               0.091691             dma02_estimated
1030                 54.889               0.018236             dma02_estimated
1031                 54.279               0.036091             dma02_estimated
1032                 51.206               0.013855             dma02_estimated
1033                 50.310               0.030164             dma02_estimated
1034                 58.289               0.103345             dma02_estimated
1035                 53.919               0.070782             dma02_estimated
1036                 55.105               0.002582             dma02_estimated
1037                 50.841               0.055527             dma02_estimated
1038                 47.395               0.041073             dma02_estimated
1039                 45.000               0.065255             dma02_estimated
1040                 40.000               0.075618             dma02_estimated
1041                 53.491               0.060909             dma02_estimated
1042                 52.494               0.027945             dma02_estimated
1043                 49.832               0.037255             dma02_estimated
1044                 45.862               0.068855             dma02_estimated
1045                 44.603               0.047891             dma02_estimated
1046                 44.143               0.029673             dma02_estimated
1047                 48.315               0.033945             dma02_estimated
1048                 44.234               0.098673             dma02_estimated
1049                 39.765               0.066927             dma02_estimated
1050                 38.586               0.094764             dma02_estimated
1051                 35.200               0.165455             dma02_estimated
1052                 27.216               0.085764             dma02_estimated
1053                 30.134               0.027873             dma02_estimated
1054                 28.362               0                    dma02_estimated
1055                 26.535               0.021018             dma02_estimated
1056                 31.687               0.016945             dma02_estimated
1057                 32.248               0.016945             dma02_estimated
1058                 37.441               0.032018             dma02_estimated
1059                 39.436               0.030018             dma02_estimated
1060                 47.713               0.035891             dma02_estimated
1061                 50.000               0.0118               dma02_estimated
1062                 50.000               0.034473             dma02_estimated
1063                 60.000               0.010018             dma02_estimated
1064                 60.000               0.010018             dma02_estimated
1065                 57.917               0.001327             dma02_estimated
1066                 57.261               0.000564             dma02_estimated
1067                 35.026               0.045782             dma02_estimated
1068                 38.542               0.0472               dma02_estimated
1069                 38.686               0.046345             dma02_estimated
1070                 39.870               0.005491             dma02_estimated
1071                 39.809               0.029873             dma02_estimated
1072                 53.652               0.065382             dma02_estimated
1073                 20.016               0                    dma02_estimated
1074                 38.758               0.026891             dma02_estimated
1075                 39.020               0.022673             dma02_estimated
1076                 45.000               0.068855             dma02_estimated
1077                 39.822               0.038636             dma02_estimated
1079                 37.395               0.0035               dma02_estimated
1080                 42.950               0                    dma02_estimated
1081                 67.500               0
1082                 49.880               0                    dma02_estimated
1083_n2a_1           22.335               0
1083_n2a_2           22.335               0
1084                 38.600               0                    dma02_estimated
1086                 37.945               0                    dma02_estimated
1087                 37.928               0                    dma02_estimated
1088                 42.935               0                    dma02_estimated
1089                 42.915               0                    dma02_estimated
1090                 54.990               0                    dma02_estimated
1091                 54.975               0                    dma02_estimated
1092                 23.210               0                    dma02_estimated
1093                 37.648               0                    dma02_estimated
1094                 37.655               0                    dma02_estimated
1095                 31.689               0                    dma02_estimated
1096                 31.683               0                    dma02_estimated
1103                 38.420               0                    dma02_estimated
1105_n2a_1           53.850               0
1105_n2a_2           53.850               0
1106                 20.300               0.075                dma02_estimated
1107_n2a_1           69.150               0
1107_n2a_2           69.150               0
1108                 39.400               0                    dma02_estimated
1109                 38.760               0                    dma02_estimated
1110                 39.050               0                    dma02_estimated
1111                 39.030               0                    dma02_estimated
1112                 39.790               0                    dma02_estimated
1113                 39.810               0                    dma02_estimated
1114                 60.020               0                    dma02_estimated
1115                 45.855               0                    dma02_estimated
113852               42.500               0                    dma02_estimated
113873               68.250               0
113880               68.250               0
113883               68.250               0
113908               47.000               0
113951_n2a_1         19.690               0
113951_n2a_2         19.690               0
113951_n2a_3         19.690               0
113954               51.500               0
113955               51.500               0                    dma03_estimated
113956               48.000               0                    dma03_estimated
113957               44.200               0                    dma03_estimated
113958               41.650               0                    dma03_estimated
113959               43.640               0                    dma03_estimated
113960               35.970               0                    dma03_estimated
113961               33.210               0                    dma03_estimated
113962               44.770               0                    dma03_estimated
113963               44.710               0                    dma03_estimated
113964               42.770               0                    dma03_estimated
113965               42.000               0.03101              dma03_estimated
113966               38.700               0.01613              dma03_estimated
113967               38.770               0                    dma03_estimated
113968               37.820               0                    dma03_estimated
113969               37.290               0                    dma03_estimated
113970               36.970               0                    dma03_estimated
113971               37.060               0                    dma03_estimated
113972               38.140               0.00571              dma03_estimated
113973               36.270               0.00305              dma03_estimated
113974               34.000               0.03526              dma03_estimated
113975               33.280               0                    dma03_estimated
113976               37.840               0                    dma03_estimated
113977               37.310               0                    dma03_estimated
113978               39.990               0                    dma03_estimated
113979               40.250               0                    dma03_estimated
113980               40.750               0                    dma03_estimated
113981               42.210               0                    dma03_estimated
113982               42.680               0                    dma03_estimated
113983               42.660               0                    dma03_estimated
113984               42.470               0                    dma03_estimated
113985               38.120               0.00409              dma03_estimated
113986               37.160               0.00717              dma03_estimated
113987               40.030               0                    dma03_estimated
113988               44.210               0.00489              dma03_estimated
113989               44.230               0                    dma03_estimated
113990               37.900               0.01644              dma03_estimated
113991               42.470               0                    dma03_estimated
113992               39.900               0                    dma03_estimated
113993               36.660               0                    dma03_estimated
113994               36.530               0                    dma03_estimated
113995               34.620               0.01521              dma03_estimated
113996               30.740               0.02289              dma03_estimated
113997               36.810               0                    dma03_estimated
113998               37.100               0                    dma03_estimated
113999               40.100               0                    dma03_estimated
114000               37.610               0.04913              dma03_estimated
114001               37.260               0                    dma03_estimated
114002               34.780               0.04342              dma03_estimated
114003               34.650               0.01951              dma03_estimated
114004               37.040               0                    dma03_estimated
114005               31.840               0.00589              dma03_estimated
114006               32.340               0.00599              dma03_estimated
114007               32.240               0.00516              dma03_estimated
114008               30.960               0.00574              dma03_estimated
114009               29.700               0                    dma03_estimated
114010               33.780               0.00376              dma03_estimated
114011               33.070               0.00375              dma03_estimated
114012               30.660               0.0036               dma03_estimated
114013               30.240               0.00507              dma03_estimated
114014               29.750               0.01345              dma03_estimated
114015               37.400               0                    dma03_estimated
114016               37.070               0.00941              dma03_estimated
114017               36.830               0                    dma03_estimated
114018               45.200               0                    dma03_estimated
114044               37.750               0                    dma03_estimated
114102               37.980               0                    dma03_estimated
114107               42.690               0                    dma03_estimated
114108               40.130               0                    dma03_estimated
114109               42.560               0                    dma03_estimated
114110               39.920               0                    dma03_estimated
114123               42.280               0                    dma03_estimated
114128               39.420               0                    dma03_estimated
114132               39.740               0                    dma03_estimated
114133               43.400               0.04898              dma03_estimated
114139               37.850               0                    dma03_estimated
114147               44.800               0                    dma03_estimated
114148               44.470               0                    dma03_estimated
114149               44.150               0                    dma03_estimated
114150               42.690               0                    dma03_estimated
114151               41.990               0                    dma03_estimated
114152               36.940               0                    dma03_estimated
114153               36.320               0                    dma03_estimated
114154               37.040               0                    dma03_estimated
114155               39.940               0                    dma03_estimated
114156               39.240               0                    dma03_estimated
114157               42.520               0                    dma03_estimated
114158               40.260               0                    dma03_estimated
114183               42.640               0                    dma03_estimated
114184               44.540               0                    dma03_estimated
114185               37.850               0                    dma03_estimated
114186               37.150               0                    dma03_estimated
114187               37.350               0                    dma03_estimated
114189               38.090               0                    dma03_estimated
114190               33.210               0                    dma03_estimated
114191               30.160               0                    dma03_estimated
114192               32.140               0                    dma03_estimated
114193               36.810               0                    dma03_estimated
114214               37.670               0                    dma03_estimated
114220               39.980               0                    dma03_estimated
114223               32.080               0.02004              dma03_estimated
114227               31.040               0                    dma03_estimated
114230               33.580               0                    dma03_estimated
114233               41.020               0                    dma03_estimated
114236               41.160               0.03095              dma03_estimated
114239               34.000               0.00128              dma03_estimated
114242               35.010               0.0092               dma03_estimated
114245               31.100               0.00655              dma03_estimated
114248               37.500               0.06618              dma03_estimated
114251               41.280               0.04044              dma03_estimated
114254               41.650               0                    dma03_estimated
128                  54.000               0                    dma02_estimated
131                  50.540               0                    dma02_estimated
134                  31.250               0                    dma02_estimated
138                  32.000               0.055501             dma02_estimated
41                   39.450               0                    dma02_estimated
42                   23.350               0                    dma02_estimated

[RESERVOIRS]
;node_id             head                 pattern_id
;----------          ----------           ----------
1097                 53.850
1101                 75.000
111111               19.690

[TANKS]
;node_id             elevation            initlevel            minlevel             maxlevel             diameter             minvol               curve_id
;----------          ----------           ----------           ----------           ----------           ----------           ----------           ----------
113952               81.500               1.0000               0.0000               3.5000               12.0000              0.0000
113766               68.250               1.0000               0.0000               3.5000               12.0000              0.0000

[PIPES]
;arc_id              node_1               node_2               length               diameter             roughness            minorloss            status
;----------          ----------           ----------           ----------           ----------           ----------           ----------           ----------
113854               113852               1009                 39.750               99.000               0.025000             0.000000             OPEN
113857               1111                 113852               94.180               99.000               0.025000             0.000000             OPEN
113875               113873               1081                 11.370               204.000              0.003000             0.000000             OPEN
113881               1105_n2a_1           113880               15.550               99.000               0.002500             0.000000             OPEN
113884               1107_n2a_1           113883               21.290               144.000              0.002500             0.000000             OPEN
113905               113883               113766               1.400                144.000              0.002500             0.000000             OPEN
113906               113766               113873               2.630                204.000              0.003000             0.000000             OPEN
113907               113880               113766               2.090                99.000               0.002500             0.000000             OPEN
113909               1081                 113908               105.830              204.000              0.003000             0.000000             OPEN
113910               113908               1080                 52.860               204.000              0.003000             0.000000             OPEN
113921               1052                 42                   99.470               144.000              0.002500             0.000000             OPEN
113922               42                   1015                 26.430               144.000              0.002500             0.000000             OPEN
113935               1074                 41                   29.000               99.000               0.002500             0.000000             OPEN
113936               41                   1108                 71.060               99.000               0.002500             0.000000             OPEN
114025               111111               113951_n2a_2         12.000               153.000              0.003000             0.000000             OPEN
114026               113951_n2a_1         113954               19.750               153.000              0.003000             0.000000             OPEN
114027               113955               113956               13.720               153.000              0.003000             0.000000             OPEN
114028               113962               113963               8.460                99.000               0.002500             0.000000             OPEN
114030               113956               113957               19.360               153.000              0.003000             0.000000             OPEN
114032               113963               113964               43.210               56.700               0.002500             0.000000             OPEN
114034               113966               113967               11.210               99.000               0.002500             0.000000             OPEN
114045               113958               113972               57.720               144.000              0.002500             0.000000             OPEN
114046               113963               114018               16.980               99.000               0.002500             0.000000             OPEN
114050               113959               113988               32.340               99.000               0.002500             0.000000             OPEN
114051               113984               113991               10.920               99.000               0.002500             0.000000             OPEN
114052               113988               113987               58.480               82.000               0.002500             0.000000             OPEN
114053               113987               113986               64.430               82.000               0.002500             0.000000             OPEN
114054               113984               113985               52.120               56.700               0.002500             0.000000             OPEN
114056               113991               113990               53.220               82.000               0.002500             0.000000             OPEN
114057               113990               113995               101.180              82.000               0.002500             0.000000             OPEN
114059               113993               113994               14.180               99.000               0.002500             0.000000             OPEN
114061               113996               113997               95.230               56.700               0.002500             0.000000             OPEN
114064               113982               113981               22.910               99.000               0.002500             0.000000             OPEN
114065               113981               113980               34.810               99.000               0.002500             0.000000             OPEN
114066               113980               113979               21.630               99.000               0.002500             0.000000             OPEN
114067               113965               113967               36.680               56.700               0.002500             0.000000             OPEN
114069               113968               113976               10.390               99.000               0.002500             0.000000             OPEN
114071               113968               113979               42.040               99.000               0.002500             0.000000             OPEN
114072               113969               113970               94.650               99.000               0.002500             0.000000             OPEN
114073               113970               113974               52.650               82.000               0.002500             0.000000             OPEN
114076               113973               114010               82.830               144.000              0.002500             0.000000             OPEN
114077               114010               114011               22.630               144.000              0.002500             0.000000             OPEN
114079               114011               114012               85.470               144.000              0.002500             0.000000             OPEN
114082               114013               114014               77.950               144.000              0.002500             0.000000             OPEN
114083               114014               114009               42.640               82.000               0.002500             0.000000             OPEN
114084               114009               114008               45.530               82.000               0.002500             0.000000             OPEN
114085               114008               114007               81.810               82.000               0.002500             0.000000             OPEN
114088               114006               114005               79.600               82.000               0.002500             0.000000             OPEN
114091               113992               113999               15.670               99.000               0.002500             0.000000             OPEN
114092               113998               114000               74.170               82.000               0.002500             0.000000             OPEN
114093               114001               113960               31.340               99.000               0.002500             0.000000             OPEN
114094               113960               114002               45.710               99.000               0.002500             0.000000             OPEN
114095               114002               114004               78.600               82.000               0.002500             0.000000             OPEN
114098               113975               113969               48.120               82.000               0.002500             0.000000             OPEN
114099               114017               114003               75.660               82.000               0.002500             0.000000             OPEN
114101               114044               113971               4.710                99.000               0.002500             0.000000             OPEN
114103               113966               114102               16.040               99.000               0.002500             0.000000             OPEN
114104               114102               114044               2.230                99.000               0.002500             0.000000             OPEN
114106               113971               113970               8.550                99.000               0.002500             0.000000             OPEN
114111               113982               114109               8.580                99.000               0.002500             0.000000             OPEN
114112               113983               114107               8.150                99.000               0.002500             0.000000             OPEN
114116               113989               113988               23.680               99.000               0.002500             0.000000             OPEN
114117               114015               114016               91.320               99.000               0.002500             0.000000             OPEN
114118               113977               113978               89.070               82.000               0.002500             0.000000             OPEN
114119               113977               114004               10.820               99.000               0.002500             0.000000             OPEN
114121               114006               114017               67.710               99.000               0.002500             0.000000             OPEN
114126               113999               114108               77.610               82.000               0.002500             0.000000             OPEN
114127               114108               114110               14.490               99.000               0.002500             0.000000             OPEN