[TITLE]
;Project name:
;Result name:        r1
;Hydrology scenario: Infiltration default value
;DWF scenario:
;Default values:     true
;Advanced settings:  false
;Datetime:           2021-05-31 11:46:44
;User:               postgres

[OPTIONS]
;;parameter          value
;;----------         ----------
FLOW_UNITS           CMS
INFILTRATION         CURVE_NUMBER
FLOW_ROUTING         DYNWAVE
LINK_OFFSETS         ELEVATION
SKIP_STEADY_STATE    NO
MIN_SLOPE            0.00
ALLOW_PONDING        YES
FORCE_MAIN_EQUATION  H-W
WET_STEP             00:05:00
SWEEP_START          01/01
LENGTHENING_STEP     1
INERTIAL_DAMPING     NONE
ROUTING_STEP         00:00:02
START_DATE           01/01/2017
END_DATE             01/01/2017
DRY_DAYS             10
REPORT_START_DATE    01/01/2017
DRY_STEP             01:00:00
SWEEP_END            12/31
NORMAL_FLOW_LIMITED  BOTH
MIN_SURFAREA         0.00
REPORT_STEP          00:05:00
START_TIME           00:00:00
END_TIME             03:00:00
REPORT_START_TIME    00:00:00
IGNORE_RAINFALL      NO
IGNORE_SNOWMELT      NO
IGNORE_GROUNDWATER   NO
IGNORE_ROUTING       NO
IGNORE_QUALITY       NO

[REPORT]
;;parameter          value
;;----------         ----------
CONTINUITY           YES
FLOWSTATS            YES
CONTROLS             YES
INPUT                NO

[FILES]
;;actio_type         file_type            fname
;;----------         ----------           ----------

[EVAPORATION]
;;evap_type          value
;;----------         ----------

[RAINGAGES]
;;rg_id              form_type            intvl                scf                  raingage_type        other1               other2               other3
;;----------         ----------           ----------           ----------           ----------           ----------           ----------           ----------
RG-01                VOLUME               0:05                 1.0000               TIMESERIES           T5-5m

[TEMPERATURE]
;;temp_type          value
;;----------         ----------

[SUBCATCHMENTS]
;;subc_id            rg_id                outlet_id            area                 imperv               width                slope                clength              snow_id
;;----------         ----------           ----------           ----------           ----------           ----------           ----------           ----------           ----------
S100                 RG-01                100                  0.231518             90.0000              34.5744              3.3912               66.8052
S101                 RG-01                101                  0.401417             90.0000              41.7699              2.0855               95.8764
S102                 RG-01                102                  0.462874             90.0000              46.4229              2.4805               99.4740
S104                 RG-01                104                  0.284897             75.0000              37.1995              3.2114               76.4236
S105                 RG-01                105                  0.293301             90.0000              37.7248              3.3651               81.5852
S106                 RG-01                106                  0.330738             90.0000              37.4766              4.3108               88.0441
S107                 RG-01                107                  0.476695             90.0000              44.9560              4.1584               105.7862
S108                 RG-01                108                  0.509853             90.0000              46.7601              4.3427               108.7799
S109                 RG-01                109                  0.481851             90.0000              46.6806              3.5634               102.9801
S110                 RG-01                110                  0.483870             90.0000              49.6706              2.7689               97.1873
S111                 RG-01                111                  0.305597             80.0000              39.5300              4.1934               77.1258
S112                 RG-01                112                  0.192198             80.0000              29.9673              2.2840               63.9858
S113                 RG-01                113                  0.093818             90.0000              22.0550              2.5624               42.4376
S114                 RG-01                114                  0.199374             80.0000              33.5638              2.7867               59.2616
S115                 RG-01                115                  0.131783             90.0000              24.7074              3.3851               53.2131
S116                 RG-01                116                  0.112434             90.0000              22.8738              4.4456               49.0397
S117                 RG-01                117                  0.268526             90.0000              36.6413              4.2255               73.1125
S118                 RG-01                118                  0.430714             90.0000              41.7312              3.9658               81.2659
S119                 RG-01                119                  0.286365             90.0000              37.9419              3.8054               74.9921
S120                 RG-01                120                  0.194282             90.0000              23.7371              3.0499               48.7073
S123                 RG-01                123                  0.200391             90.0000              27.6742              3.4757               48.7085
S124                 RG-01                124                  0.301251             90.0000              35.7880              2.2638               66.3214
S125                 RG-01                125                  0.235923             90.0000              30.3461              3.6769               59.3559
S126                 RG-01                126                  0.310468             90.0000              40.0102              4.5459               77.4146
S127                 RG-01                127                  0.309410             90.0000              39.3687              7.5595               78.4076
S128                 RG-01                128                  0.304908             90.0000              39.8457              4.6477               76.3423
S129                 RG-01                129                  0.306567             90.0000              39.9810              3.9675               76.4977
S130                 RG-01                130                  0.300803             90.0000              39.4831              2.4328               76.0059
S131                 RG-01                131                  0.325355             90.0000              41.7200              2.6601               77.8018
S132                 RG-01                132                  0.254699             90.0000              36.0482              3.8676               70.4892
S18973               RG-01                18973                0.272275             75.0000              33.5392              3.7636               61.8617
S18976               RG-01                18976                0.266143             75.0000              31.4095              2.4588               60.7860
S233                 RG-01                233                  0.188509             90.0000              27.6758              2.3739               67.9532
S234                 RG-01                234                  0.116658             90.0000              17.4549              1.8738               35.7664
S237                 RG-01                237                  0.152189             90.0000              17.4665              1.9112               42.2788
S29                  RG-01                29                   0.275028             80.0000              37.9551              5.3878               72.2912
S30                  RG-01                30                   0.296759             80.0000              40.8735              7.1067               72.4342
S31                  RG-01                31                   0.122128             90.0000              25.8648              12.7388              47.1069
S32                  RG-01                32                   0.180222             90.0000              29.5274              13.4373              60.8923
S33                  RG-01                33                   0.221106             90.0000              33.9808              0.4185               64.9154
S34                  RG-01                34                   0.132166             90.0000              27.0182              0.8967               48.8026
S35                  RG-01                35                   0.247780             90.0000              34.2078              3.9426               72.2636
S36                  RG-01                20607                0.204288             90.0000              30.8750              5.8804               66.0090
S37                  RG-01                37                   0.364908             90.0000              41.6009              5.1679               87.5099
S38                  RG-01                38                   0.348781             90.0000              39.0026              3.9326               89.2150
S39                  RG-01                39                   0.190204             90.0000              31.2450              3.4570               60.7317
S40                  RG-01                40                   0.221543             90.0000              33.4654              2.3305               66.0449
S41                  RG-01                41                   0.451386             75.0000              47.0289              3.3318               95.7553
S42                  RG-01                42                   0.306534             90.0000              39.0452              2.9231               78.3229
S43                  RG-01                43                   0.205022             90.0000              25.7286              3.8499               55.7560
S44                  RG-01                44                   0.220334             90.0000              29.1945              3.7558               57.8319
S45                  RG-01                45                   0.168765             90.0000              25.5099              4.4105               46.9425
S46                  RG-01                46                   0.128209             90.0000              26.8648              0.9511               47.6121
S47                  RG-01                47                   0.093250             90.0000              21.2232              1.5897               43.8347
S48                  RG-01                48                   0.183941             90.0000              31.6946              3.2576               57.8992
S49                  RG-01                49                   0.250012             90.0000              36.3395              5.5564               68.6366
S50                  RG-01                50                   0.171010             90.0000              28.1550              8.1967               60.5970
S51                  RG-01                51                   0.364554             90.0000              43.2363              2.7170               84.1188
S52                  RG-01                52                   0.437821             90.0000              47.3296              4.2295               92.2872
S53                  RG-01                53                   0.296864             80.0000              36.8413              12.6956              80.3898
S54                  RG-01                54                   0.329438             90.0000              40.3126              10.4924              81.5288
S55                  RG-01                55                   0.369505             80.0000              43.7758              4.5683               84.2102
S56                  RG-01                56                   0.208005             80.0000              30.9145              2.8511               67.1260
S57                  RG-01                57                   0.350142             90.0000              40.6342              3.1781               85.9677
S58                  RG-01                58                   0.293164             90.0000              36.8598              4.8442               79.3485
S59                  RG-01                59                   0.286205             90.0000              36.4022              4.3333               78.4378
S60                  RG-01                60                   0.213969             90.0000              31.4867              3.1749               67.7950
S61                  RG-01                61                   0.448011             90.0000              43.0040              4.0122               103.9328
S62                  RG-01                62                   0.302539             90.0000              34.5372              2.3445               87.3955
S63                  RG-01                63                   0.348493             90.0000              38.0122              5.9583               91.4632
S64                  RG-01                64                   0.390604             90.0000              38.7126              5.0334               100.6613
S65                  RG-01                65                   0.237089             90.0000              35.6654              10.6499              66.3196
S66                  RG-01                66                   0.091133             90.0000              21.0980              7.6104               43.0934
S67                  RG-01                67                   0.283116             90.0000              39.4283              3.8371               71.6361
S68                  RG-01                68                   0.480992             90.0000              51.8660              4.4623               92.5199
S69                  RG-01                69                   0.389700             90.0000              46.3135              5.8044               83.9461
S70                  RG-01                70                   0.201170             90.0000              33.0939              4.5619               60.6441
S71                  RG-01                71                   0.341107             90.0000              41.6150              5.4179               81.7755
S72                  RG-01                72                   0.214618             90.0000              31.0686              2.4006               68.9159
S73                  RG-01                73                   0.498649             90.0000              50.8074              3.6284               97.9149
S74                  RG-01                74                   0.210830             90.0000              31.2254              10.3643              67.3612
S75                  RG-01                75                   0.157916             90.0000              29.0269              5.3430               54.2764
S76                  RG-01                76                   0.168347             90.0000              28.1109              10.9236              59.7455
S77                  RG-01                77                   0.286534             90.0000              39.1259              6.7407               73.0618
S78                  RG-01                78                   0.237088             90.0000              33.5414              5.0565               70.5188
S79                  RG-01                79                   0.434639             90.0000              43.7593              2.6026               99.0918
S80                  RG-01                80                   0.493090             90.0000              48.4219              3.1623               101.5925
S81                  RG-01                81                   0.214983             90.0000              32.0598              2.2552               66.8993
S82                  RG-01                82                   0.565555             90.0000              56.7097              4.0158               99.4938
S83                  RG-01                83                   0.312052             90.0000              36.8336              5.4208               84.5210
S84                  RG-01                84                   0.439065             90.0000              45.4211              3.2076               96.4373
S85                  RG-01                85                   0.181517             90.0000              28.8127              2.2869               62.8523
S86                  RG-01                86                   0.159831             90.0000              28.0719              3.0083               56.8025
S87                  RG-01                87                   0.200475             90.0000              30.6821              2.6286               65.1857
S88                  RG-01                88                   0.246231             90.0000              36.5746              2.1785               67.1648
S89                  RG-01                89                   0.225544             90.0000              31.8056              2.1738               70.7469
S90                  RG-01                90                   0.261679             90.0000              36.3886              3.7921               71.7428
S91                  RG-01                20599                0.267901             90.0000              35.6211              5.9772               75.0321
S92                  RG-01                20597                0.348862             90.0000              39.9304              5.5373               87.1621
S93                  RG-01                93                   0.200440             90.0000              31.9659              2.5266               62.5567
S94                  RG-01                20598                0.410813             90.0000              48.5014              6.2660               84.5020
S95                  RG-01                95                   0.207905             90.0000              32.8806              11.1235              63.0817
S96                  RG-01                96                   0.266024             90.0000              37.4176              7.6229               70.9289
S97                  RG-01                97                   0.451785             90.0000              46.4014              2.0535               97.1359
S98                  RG-01                98                   0.480232             90.0000              46.0678              2.4709               103.9993
S99                  RG-01                99                   0.302622             90.0000              35.6178              2.5629               84.7638

[INFILTRATION]
;;subc_id            other1               other2               other3               other4               other5
;;----------         ----------           ----------           ----------           ----------           ----------
S55                  88.4935              0.0000               10.0000
S45                  82.9999              0.0000               10.0000
S107                 83.0000              0.0000               10.0000
S35                  83.0000              0.0000               10.0000
S117                 83.0000              0.0000               10.0000
S32                  83.0000              0.0000               10.0000
S234                 82.7493              0.0000               10.0000
S62                  83.0000              0.0000               10.0000
S30                  83.0296              0.0000               10.0000
S129                 83.0000              0.0000               10.0000
S97                  83.0000              0.0000               10.0000
S105                 83.0000              0.0000               10.0000
S49                  83.0000              0.0000               10.0000
S68                  81.2026              0.0000               10.0000
S126                 83.0000              0.0000               10.0000
S52                  83.0000              0.0000               10.0000
S61                  83.0000              0.0000               10.0000
S77                  83.1444              0.0000               10.0000
S85                  83.0000              0.0000               10.0000
S74                  83.0000              0.0000               10.0000
S118                 83.0000              0.0000               10.0000
S106                 83.0000              0.0000               10.0000
S237                 82.6522              0.0000               10.0000
S39                  83.0000              0.0000               10.0000
S102                 83.0000              0.0000               10.0000
S130                 83.0000              0.0000               10.0000
S54                  84.0337              0.0000               10.0000
S233                 83.0000              0.0000               10.0000
S58                  84.7510              0.0000               10.0000
S120                 83.0000              0.0000               10.0000
S91                  78.5505              0.0000               10.0000
S46                  82.2439              0.0000               10.0000
S76                  83.2766              0.0000               10.0000
S60                  83.0000              0.0000               10.0000
S83                  83.0000              0.0000               10.0000
S119                 83.0000              0.0000               10.0000
S50                  82.9999              0.0000               10.0000
S59                  83.0000              0.0000               10.0000
S65                  83.0007              0.0000               10.0000
S101                 83.0000              0.0000               10.0000
S42                  83.0000              0.0000               10.0000
S94                  59.4784              0.0000               10.0000
S43                  83.0000              0.0000               10.0000
S96                  83.0000              0.0000               10.0000
S100                 83.0000              0.0000               10.0000
S34                  83.0000              0.0000               10.0000
S41                  83.0000              0.0000               10.0000
S63                  78.7732              0.0000               10.0000
S36                  82.1243              0.0000               10.0000
S124                 82.9999              0.0000               10.0000
S89                  83.0000              0.0000               10.0000
S57                  85.5823              0.0000               10.0000
S132                 83.0000              0.0000               10.0000
S47                  82.1423              0.0000               10.0000
S67                  83.0000              0.0000               10.0000
S109                 83.0000              0.0000               10.0000
S123                 82.9998              0.0000               10.0000
S125                 82.9999              0.0000               10.0000
S40                  83.0000              0.0000               10.0000
S70                  83.0000              0.0000               10.0000
S73                  83.0000              0.0000               10.0000
S108                 83.0000              0.0000               10.0000
S53                  83.7164              0.0000               10.0000
S80                  83.0000              0.0000               10.0000
S111                 82.9860              0.0000               10.0000
S88                  83.0000              0.0000               10.0000
S18973               83.0000              0.0000               10.0000
S33                  83.0000              0.0000               10.0000
S51                  83.0000              0.0000               10.0000
S48                  83.0000              0.0000               10.0000
S64                  83.0000              0.0000               10.0000
S92                  68.9078              0.0000               10.0000
S98                  83.0000              0.0000               10.0000
S29                  83.2066              0.0000               10.0000
S110                 83.0000              0.0000               10.0000
S71                  76.1746              0.0000               10.0000
S84                  83.0000              0.0000               10.0000
S86                  83.0000              0.0000               10.0000
S95                  83.0000              0.0000               10.0000
S90                  79.2674              0.0000               10.0000
S114                 88.4274              0.0000               10.0000
S75                  74.8638              0.0000               10.0000
S78                  79.5649              0.0000               10.0000
S18976               83.0000              0.0000               10.0000
S116                 82.9998              0.0000               10.0000
S38                  83.0000              0.0000               10.0000
S79                  83.0000              0.0000               10.0000
S128                 83.0000              0.0000               10.0000
S66                  83.2838              0.0000               10.0000
S127                 83.0000              0.0000               10.0000
S56                  87.9808              0.0000               10.0000
S31                  83.0000              0.0000               10.0000
S104                 83.0000              0.0000               10.0000
S44                  83.0000              0.0000               10.0000
S99                  83.0000              0.0000               10.0000
S37                  83.0000              0.0000               10.0000
S115                 82.9997              0.0000               10.0000
S72                  78.9227              0.0000               10.0000
S81                  83.0000              0.0000               10.0000
S113                 84.3215              0.0000               10.0000
S69                  83.0000              0.0000               10.0000
S87                  83.0000              0.0000               10.0000
S93                  83.0000              0.0000               10.0000
S112                 82.9998              0.0000               10.0000
S131                 83.0000              0.0000               10.0000
S82                  83.0000              0.0000               10.0000

[SUBAREAS]
;;subc_id            nimp                 nperv                simp                 sperv                zero                 routeto              rted
;;----------         ----------           ----------           ----------           ----------           ----------           ----------           ----------
S36                  0.0130               0.0250               3.0850               0.0000               0.0000               IMPERVIOUS           100.0000
S18973               0.0130               0.0250               3.8390               0.0000               0.0000               IMPERVIOUS           100.0000
S18976               0.0130               0.0250               4.7295               0.0000               0.0000               IMPERVIOUS           100.0000
S66                  0.0130               0.0250               2.7188               0.0000               0.0000               IMPERVIOUS           100.0000
S74                  0.0130               0.0250               2.3370               0.0000               0.0000               IMPERVIOUS           100.0000
S75                  0.0130               0.0250               3.2333               0.0000               0.0000               IMPERVIOUS           100.0000
S78                  0.0130               0.0250               3.3218               0.0000               0.0000               IMPERVIOUS           100.0000
S79                  0.0130               0.0250               4.5996               0.0000               0.0000               IMPERVIOUS           100.0000
S76                  0.0130               0.0250               2.2775               0.0000               0.0000               IMPERVIOUS           100.0000
S77                  0.0130               0.0250               2.8854               0.0000               0.0000               IMPERVIOUS           100.0000
S118                 0.0130               0.0250               3.7418               0.0000               0.0000               IMPERVIOUS           100.0000
S60                  0.0130               0.0250               4.1727               0.0000               0.0000               IMPERVIOUS           100.0000
S57                  0.0130               0.0250               4.1706               0.0000               0.0000               IMPERVIOUS           100.0000
S113                 0.0130               0.0250               4.6348               0.0000               0.0000               IMPERVIOUS           100.0000
S35                  0.0130               0.0250               3.7526               0.0000               0.0000               IMPERVIOUS           100.0000
S64                  0.0130               0.0250               3.3293               0.0000               0.0000               IMPERVIOUS           100.0000
S71                  0.0130               0.0250               3.2114               0.0000               0.0000               IMPERVIOUS           100.0000
S62                  0.0130               0.0250               4.8411               0.0000               0.0000               IMPERVIOUS           100.0000
S58                  0.0130               0.0250               3.3924               0.0000               0.0000               IMPERVIOUS           100.0000