[TITLE]


[JUNCTIONS]
;ID              	Elev        	Demand      	Pattern         
 1001            	32.587      	0.01        	PTN-JUNCTION    	;3 2 3 1 2042 JUNCTION 60
 1002            	25.238      	0.01        	PTN-JUNCTION    	;3 2 3 1 2042 JUNCTION 60
 1003            	29.885      	0.01        	PTN-JUNCTION    	;3 2 3 1 113921 JUNCTION 60
 1004            	35.074      	0.01        	PTN-JUNCTION    	;3 2 3 1 113921 JUNCTION 60
 1005            	42.921      	0.01        	PTN-JUNCTION    	;3 2 3 1 2069 T 60
 1006            	53.614      	0.01        	PTN-JUNCTION    	;3 2 3 1 2047 JUNCTION 60
 1008            	53.071      	0.01        	PTN-JUNCTION    	;3 2 3 1 2047 JUNCTION 60
 1009            	45.000      	0.01        	PTN-JUNCTION    	;3 2 3 1 2047 HYDRANT 60
 1010            	51.920      	0.01        	PTN-JUNCTION    	;3 2 3 1 2024 JUNCTION 60
 1011            	57.092      	0.01        	PTN-JUNCTION    	;3 2 3 1 2024 JUNCTION 60
 1012            	47.570      	0.01        	PTN-JUNCTION    	;3 2 3 1 2024 HYDRANT 60
 1013            	37.874      	0.01        	PTN-JUNCTION    	;3 2 3 1 2024 T 60
 1014            	22.381      	0.01        	PTN-JUNCTION    	;3 2 3 1 113921 T 60
 1015            	23.204      	0.01        	PTN-JUNCTION    	;3 2 3 1 113921 T 60
 1016            	25.000      	0.01        	PTN-JUNCTION    	;3 2 3 1 113921 JUNCTION 60
 1017            	30.000      	0.01        	PTN-JUNCTION    	;3 2 3 1 113921 JUNCTION 60
 1018            	33.080      	0.01        	PTN-JUNCTION    	;3 2 3 1 113921 JUNCTION 60
 1019            	34.390      	0.01        	PTN-JUNCTION    	;3 2 3 1 2042 JUNCTION 60
 1020            	38.710      	0.01        	PTN-JUNCTION    	;3 2 3 1 2024 T 60
 1021            	37.651      	0.01        	PTN-JUNCTION    	;3 2 3 1 2024 T 60
 1022            	37.932      	0.01        	PTN-JUNCTION    	;3 2 3 1 2024 T 60
 1023            	43.658      	0.01        	PTN-JUNCTION    	;3 2 3 1 2024 T 60
 1024            	52.377      	0.01        	PTN-JUNCTION    	;3 2 3 1 2024 T 60
 1025            	55.385      	0.01        	PTN-JUNCTION    	;3 2 3 1 2024 JUNCTION 60
 1026            	56.553      	0.01        	PTN-JUNCTION    	;3 2 3 1 2024 T 60
 1027            	54.986      	0.01        	PTN-JUNCTION    	;3 2 3 1 2083 T 60
 1028            	54.089      	0.01        	PTN-JUNCTION    	;3 2 3 1 2047 T 60
 1029            	54.723      	0.01        	PTN-JUNCTION    	;3 2 3 1 2047 T 60
 1030            	54.889      	0.01        	PTN-JUNCTION    	;3 2 3 1 2024 JUNCTION 60
 1031            	54.279      	0.01        	PTN-JUNCTION    	;3 2 3 1 2024 JUNCTION 60
 1032            	51.206      	0.01        	PTN-JUNCTION    	;3 2 3 1 2047 JUNCTION 60
 1033            	50.310      	0.01        	PTN-JUNCTION    	;3 2 3 1 2083 ENDLINE 60
 1034            	58.289      	0.01        	PTN-JUNCTION    	;3 2 3 1 2047 T 60
 1035            	53.919      	0.01        	PTN-JUNCTION    	;3 2 3 1 2047 T 60
 1036            	55.105      	0.01        	PTN-JUNCTION    	;3 2 3 1 2047 T 60
 1037            	50.841      	0.01        	PTN-JUNCTION    	;3 2 3 1 2047 JUNCTION 60
 1038            	47.395      	0.01        	PTN-JUNCTION    	;3 2 3 1 2047 T 60
 1039            	45.000      	0.01        	PTN-JUNCTION    	;3 2 3 1 2047 JUNCTION 60
 1040            	40.000      	0.01        	PTN-JUNCTION    	;3 2 3 1 2047 JUNCTION 60
 1041            	53.491      	0.01        	PTN-JUNCTION    	;3 2 3 1 2083 T 60
 1042            	52.494      	0.01        	PTN-JUNCTION    	;3 2 3 1 2083 JUNCTION 60
 1043            	49.832      	0.01        	PTN-JUNCTION    	;3 2 3 1 2083 JUNCTION 60
 1044            	45.862      	0.01        	PTN-JUNCTION    	;3 2 3 1 2216 T 60
 1045            	44.603      	0.01        	PTN-JUNCTION    	;3 2 3 1 2216 ENDLINE 60
 1046            	44.143      	0.01        	PTN-JUNCTION    	;3 2 3 1 2024 JUNCTION 60
 1047            	48.315      	0.01        	PTN-JUNCTION    	;3 2 3 1 2024 JUNCTION 60
 1048            	44.234      	0.01        	PTN-JUNCTION    	;3 2 3 1 2024 ENDLINE 60
 1049            	39.765      	0.01        	PTN-JUNCTION    	;3 2 3 1 2024 JUNCTION 60
 1050            	38.586      	0.01        	PTN-JUNCTION    	;3 2 3 1 113921 T 60
 1051            	35.200      	0.01        	PTN-JUNCTION    	;3 2 3 1 113921 JUNCTION 60
 1052            	27.216      	0.01        	PTN-JUNCTION    	;3 2 3 1 113921 T 60
 1053            	30.134      	0.01        	PTN-JUNCTION    	;3 2 3 1 2042 JUNCTION 60
 1054            	28.362      	0.01        	PTN-JUNCTION    	;3 2 3 1 2042 HYDRANT 60
 1055            	26.535      	0.01        	PTN-JUNCTION    	;3 2 3 1 2042 JUNCTION 60
 1056            	31.687      	0.01        	PTN-JUNCTION    	;3 2 3 1 2213 T 60
 1057            	32.248      	0.01        	PTN-JUNCTION    	;3 2 3 1 2213 JUNCTION 60
 1058            	37.441      	0.01        	PTN-JUNCTION    	;3 2 3 1 2213 T 60
 1059            	39.436      	0.01        	PTN-JUNCTION    	;3 2 3 1 2213 T 60
 1060            	47.713      	0.01        	PTN-JUNCTION    	;3 2 3 1 2047 JUNCTION 60
 1061            	50.000      	0.01        	PTN-JUNCTION    	;3 2 3 1 2047 T 60
 1062            	50.000      	0.01        	PTN-JUNCTION    	;3 2 3 1 2047 T 60
 1063            	60.000      	0.01        	PTN-JUNCTION    	;3 2 3 1 2088 JUNCTION 60
 1064            	60.000      	0.01        	PTN-JUNCTION    	;3 2 3 1 2047 T 60
 1065            	57.917      	0.01        	PTN-JUNCTION    	;3 2 3 1 2047 T 60
 1066            	57.261      	0.01        	PTN-JUNCTION    	;3 2 3 1 2047 ENDLINE 60
 1067            	35.026      	0.01        	PTN-JUNCTION    	;3 2 3 1 113921 JUNCTION 60
 1068            	38.542      	0.01        	PTN-JUNCTION    	;3 2 3 1 113921 JUNCTION 60
 1069            	38.686      	0.01        	PTN-JUNCTION    	;3 2 3 1 113921 JUNCTION 60
 1070            	39.870      	0.01        	PTN-JUNCTION    	;3 2 3 1 2216 T 60
 1071            	39.809      	0.01        	PTN-JUNCTION    	;3 2 3 1 2216 T 60
 1072            	53.652      	0.01        	PTN-JUNCTION    	;3 2 3 1 2024 ENDLINE 60
 1073            	20.016      	0.01        	PTN-JUNCTION    	;3 2 4 1 2095 OUTFALL_VALVE 60
 1074            	38.758      	0.01        	PTN-JUNCTION    	;3 2 3 1 2215 T 60
 1075            	39.020      	0.01        	PTN-JUNCTION    	;3 2 3 1 2216 T 60
 1076            	45.000      	0.01        	PTN-JUNCTION    	;3 2 3 1 2216 JUNCTION 60
 1077            	39.822      	0.01        	PTN-JUNCTION    	;3 2 3 1 2024 JUNCTION 60
 1079            	37.395      	0.01        	PTN-JUNCTION    	;3 2 3 1 2213 GREEN_VALVE 60
 1080            	42.950      	0           	                	;3 2 3 1 0 FLOWMETER 60
 1081            	67.500      	0           	                	;3 1 3 1 113875 FILTER 60
 1082            	49.880      	0           	                	;3 2 3 1 0 CHECK_VALVE 60
 1083_n2a_1      	22.335      	0           	                	;3 2 0 1 0 NODE2ARC
 1083_n2a_2      	22.335      	0           	                	;3 2 0 1 0 NODE2ARC
 1084            	38.600      	0.01        	PTN-JUNCTION    	;3 2 3 1 2024 PRESSURE_METER 60
 1086            	37.945      	0           	                	;3 2 3 1 0 SHUTOFF_VALVE 60
 1087            	37.928      	0           	                	;3 2 3 1 0 SHUTOFF_VALVE 60
 1088            	42.935      	0           	                	;3 2 3 1 0 SHUTOFF_VALVE 60
 1089            	42.915      	0           	                	;3 2 3 1 0 SHUTOFF_VALVE 60
 1090            	54.990      	0           	                	;3 2 3 1 0 SHUTOFF_VALVE 60
 1091            	54.975      	0           	                	;3 2 3 1 0 SHUTOFF_VALVE 60
 1092            	23.210      	0           	                	;3 2 3 1 0 CHECK_VALVE 60
 1093            	37.648      	0           	                	;3 2 3 1 0 SHUTOFF_VALVE 60
 1094            	37.655      	0           	                	;3 2 3 1 0 SHUTOFF_VALVE 60
 1095            	31.689      	0           	                	;3 2 3 1 0 SHUTOFF_VALVE 60
 1096            	31.683      	0           	                	;3 2 3 1 0 SHUTOFF_VALVE 60
 1103            	38.420      	0.01        	PTN-JUNCTION    	;3 2 3 1 2024 JUNCTION 60
 1105_n2a_1      	53.850      	0           	                	;1 4 0 3 0 NODE2ARC
 1105_n2a_2      	53.850      	0           	                	;1 4 0 3 0 NODE2ARC
 1106            	20.300      	0.01        	PTN-JUNCTION    	;3 2 4 1 2095 JUNCTION 60
 1107_n2a_1      	69.150      	0           	                	;2 4 0 3 0 NODE2ARC
 1107_n2a_2      	69.150      	0           	                	;2 4 0 3 0 NODE2ARC
 1108            	39.400      	0           	                	;3 2 3 1 0 SHUTOFF_VALVE 60
 1109            	38.760      	0           	                	;3 2 3 1 0 SHUTOFF_VALVE 60
 1110            	39.050      	0           	                	;3 2 3 1 0 SHUTOFF_VALVE 60
 1111            	39.030      	0           	                	;3 2 3 1 0 SHUTOFF_VALVE 60
 1112            	39.790      	0           	                	;3 2 3 1 0 SHUTOFF_VALVE 60
 1113            	39.810      	0           	                	;3 2 3 1 0 SHUTOFF_VALVE 60
 1114            	60.020      	0           	                	;3 2 3 1 0 SHUTOFF_VALVE 60
 1115            	45.855      	0           	                	;3 2 3 1 0 SHUTOFF_VALVE 60
 113852          	42.500      	0.01        	PTN-JUNCTION    	;3 2 3 1 2047 JUNCTION 60
 113873          	68.250      	0.01        	PTN-JUNCTION    	;3 1 3 1 113875 REDUCTION 60
 113880          	68.250      	0.01        	PTN-JUNCTION    	;1 4 1 3 113907 JUNCTION 60
 113883          	68.250      	0.01        	PTN-JUNCTION    	;2 4 2 3 113905 REDUCTION 60
 113908          	47.000      	0.01        	PTN-JUNCTION    	;3 1 3 1 113875 JUNCTION 60
 128             	54.000      	0.01        	PTN-JUNCTION    	;3 2 3 1 2047 FLEXUNION 60
 131             	50.540      	0.01        	PTN-JUNCTION    	;3 2 3 1 2047 EXPANTANK 60
 134             	31.250      	0.01        	PTN-JUNCTION    	;3 2 3 1 113921 REGISTER 60
 138             	32.000      	0.01        	PTN-JUNCTION    	;3 2 3 1 113921 WATER_CONNECTION 60
 41              	39.450      	0.01        	PTN-JUNCTION    	;3 2 3 1 2215 NETSAMPLEPOINT 60
 42              	23.350      	0.01        	PTN-JUNCTION    	;3 2 3 1 113921 NETELEMENT 60

[RESERVOIRS]
;ID              	Head        	Pattern         
 1097            	53.850      	                	;1 4 1 3 0 WATERWELL
 1101            	75.000      	                	;2 4 2 3 0 SOURCE

[TANKS]
;ID              	Elevation   	InitLevel   	MinLevel    	MaxLevel    	Diameter    	MinVol      	VolCurve        	Overflow
 113766          	68.250      	1.0000      	0.0000      	3.5000      	12.0000     	0.0000      	                	;

[PIPES]
;ID              	Node1           	Node2           	Length      	Diameter    	Roughness   	MinorLoss   	Status
 113875          	113873          	1081            	11.370      	204.000     	0.003000    	0.000000    	OPEN  	;3 1 0 1 113875 FD200 60
 2106            	1021            	1094            	3.320       	99.000      	0.002500    	0.000000    	OPEN  	;3 2 0 1 2024 PVC110-PN16 60
 135             	1051            	134             	81.640      	56.700      	0.002500    	0.000000    	OPEN  	;3 2 0 1 113921 PVC63-PN10 60
 2052            	1064            	1065            	46.890      	144.000     	0.025000    	0.000000    	OPEN  	;3 2 0 1 2047 FC160-PN10 60
 133             	131             	1062            	22.640      	56.700      	0.025000    	0.000000    	OPEN  	;3 2 0 1 2047 FC63-PN10 60
 129             	1035            	128             	12.270      	56.700      	0.025000    	0.000000    	OPEN  	;3 2 0 1 2047 FC63-PN10 60
 2098            	1022            	1086            	3.580       	56.700      	0.002500    	0.000000    	OPEN  	;3 2 0 1 2024 PVC63-PN10 60
 2007            	1022            	1013            	17.380      	99.000      	0.002500    	0.000000    	OPEN  	;3 2 0 1 2024 PELD110-PN10 60
 2047            	1028            	1029            	24.900      	99.000      	0.002500    	0.000000    	OPEN  	;3 2 0 1 2047 PEHD110-PN16 60
 2107            	1095            	1056            	3.520       	99.000      	0.002500    	0.000000    	OPEN  	;3 2 0 1 2213 PVC110-PN16 60
 113857          	1111            	113852          	94.180      	99.000      	0.025000    	0.000000    	OPEN  	;3 2 0 1 2047 FC110-PN10 60
 2037            	1092            	1002            	61.060      	99.000      	0.002500    	0.000000    	OPEN  	;3 2 0 1 2042 PVC110-PN16 60
 2078            	1045            	1044            	78.480      	56.700      	0.025000    	0.000000    	OPEN  	;3 2 0 1 2216 FC63-PN10 60
 2208            	1073            	1106            	14.950      	153.000     	0.003000    	0.000000    	OPEN  	;3 2 0 1 2095 FD150 60
 2019            	1010            	1047            	74.180      	99.000      	0.025000    	0.000000    	OPEN  	;3 2 0 1 2024 FC110-PN10 60
 113922          	42              	1015            	26.430      	144.000     	0.002500    	0.000000    	OPEN  	;3 2 0 1 113921 PVC160-PN16 60
 2104            	1015            	1092            	2.700       	99.000      	0.002500    	0.000000    	OPEN  	;3 2 0 1 113921 PVC110-PN16 60
 2080            	1043            	1042            	55.820      	56.700      	0.025000    	0.000000    	OPEN  	;3 2 0 1 2083 FC63-PN10 60
 2102            	1027            	1090            	2.550       	99.000      	0.002500    	0.000000    	OPEN  	;3 2 0 1 2083 PEHD110-PN16 60
 2038            	1002            	1055            	39.830      	99.000      	0.002500    	0.000000    	OPEN  	;3 2 0 1 2042 PVC110-PN16 60
 2020            	1047            	1046            	68.740      	99.000      	0.025000    	0.000000    	OPEN  	;3 2 0 1 2024 FC110-PN10 60
 2042            	1001            	1019            	66.400      	99.000      	0.025000    	0.000000    	OPEN  	;3 2 0 1 2042 FC110-PN10 60
 2021            	1046            	1113            	68.470      	99.000      	0.025000    	0.000000    	OPEN  	;3 2 0 1 2024 FC110-PN10 60
 2032            	1068            	1004            	70.220      	99.000      	0.002500    	0.000000    	OPEN  	;3 2 0 1 113921 PVC110-PN16 60
 113921          	1052            	42              	99.470      	144.000     	0.002500    	0.000000    	OPEN  	;3 2 0 1 113921 PVC160-PN16 60
 2011            	1012            	1024            	87.570      	99.000      	0.002500    	0.000000    	OPEN  	;3 2 0 1 2024 PEHD110-PN16 60
 113910          	113908          	1080            	52.860      	204.000     	0.003000    	0.000000    	OPEN  	;3 1 0 1 113875 FD200 60
 2085            	1070            	1076            	98.750      	56.700      	0.025000    	0.000000    	OPEN  	;3 2 0 1 2216 FC63-PN10 60
 2039            	1055            	1054            	47.510      	99.000      	0.002500    	0.000000    	OPEN  	;3 2 0 1 2042 PVC110-PN16 60
 2040            	1054            	1053            	48.760      	99.000      	0.025000    	0.000000    	OPEN  	;3 2 0 1 2042 FC110-PN10 60
 2041            	1053            	1001            	63.050      	99.000      	0.025000    	0.000000    	OPEN  	;3 2 0 1 2042 FC110-PN10 60
 2086            	1076            	1044            	12.680      	56.700      	0.025000    	0.000000    	OPEN  	;3 2 0 1 2216 FC63-PN10 60
 113936          	41              	1108            	71.060      	99.000      	0.002500    	0.000000    	OPEN  	;3 2 0 1 2215 PVC110-PN16 60
 2025            	1020            	1021            	20.930      	99.000      	0.002500    	0.000000    	OPEN  	;3 2 0 1 2024 PVC110-PN16 60
 2070            	1059            	1058            	31.140      	153.000     	0.003000    	0.000000    	OPEN  	;3 2 0 1 2213 FD150 60
 2108            	1056            	1096            	3.730       	144.000     	0.002500    	0.000000    	OPEN  	;3 2 0 1 2213 PVC160-PN16 60
 2034            	1056            	1057            	16.940      	144.000     	0.002500    	0.000000    	OPEN  	;3 2 0 1 2213 PVC160-PN16 60
 2219            	1064            	1114            	1.900       	56.700      	0.025000    	0.000000    	OPEN  	;3 2 0 1 2047 FC63-PN10 60
 2065            	1062            	1061            	71.330      	56.700      	0.002500    	0.000000    	OPEN  	;3 2 0 1 2047 PVC63-PN10 60
 2056            	1034            	1035            	76.840      	56.700      	0.025000    	0.000000    	OPEN  	;3 2 0 1 2047 FC63-PN10 60
 114460          	1034            	1064            	151.460     	99.000      	0.002500    	0.000000    	OPEN  	;3 2 0 1 2047 PEHD110-PN16 60
 2053            	1065            	1066            	18.590      	153.000     	0.003000    	0.000000    	OPEN  	;3 2 0 1 2047 FD150 60
 2054            	1065            	1036            	56.060      	144.000     	0.025000    	0.000000    	OPEN  	;3 2 0 1 2047 FC160-PN10 60
 2066            	1006            	1061            	65.820      	153.000     	0.003000    	0.000000    	OPEN  	;3 2 0 1 2047 FD150 60
 132             	1035            	131             	77.990      	56.700      	0.025000    	0.000000    	OPEN  	;3 2 0 1 2047 FC63-PN10 60
 2063            	1037            	1038            	86.150      	56.700      	0.002500    	0.000000    	OPEN  	;3 2 0 1 2047 PVC63-PN10 60
 2100            	1060            	1088            	81.780      	153.000     	0.003000    	0.000000    	OPEN  	;3 2 0 1 2047 FD150 60
 2073            	1039            	1040            	98.220      	56.700      	0.025000    	0.000000    	OPEN  	;3 2 0 1 2047 FC63-PN10 60
 2074            	1040            	1109            	33.990      	56.700      	0.002500    	0.000000    	OPEN  	;3 2 0 1 2047 PVC63-PN10 60
 2093            	1038            	1082            	90.640      	56.700      	0.002500    	0.000000    	OPEN  	;3 2 0 1 2047 PVC63-PN10 60
 2072            	1038            	1039            	53.090      	56.700      	0.002500    	0.000000    	OPEN  	;3 2 0 1 2047 PVC63-PN10 60
 2076            	1074            	1110            	13.380      	99.000      	0.025000    	0.000000    	OPEN  	;3 2 0 1 2215 FC110-PN10 60
 2003            	1016            	1017            	136.220     	99.000      	0.002500    	0.000000    	OPEN  	;3 2 0 1 113921 PEHD110-PN16 60
 113854          	113852          	1009            	39.750      	99.000      	0.025000    	0.000000    	OPEN  	;3 2 0 1 2047 FC110-PN10 60
 2013            	1024            	1025            	56.210      	99.000      	0.002500    	0.000000    	OPEN  	;3 2 0 1 2024 PVC110-PN16 60
 113935          	1074            	41              	29.000      	99.000      	0.002500    	0.000000    	OPEN  	;3 2 0 1 2215 PVC110-PN16 60
 2023            	1077            	1049            	75.940      	99.000      	0.002500    	0.000000    	OPEN  	;3 2 0 1 2024 PVC110-PN16 60
 2096            	1084            	1020            	8.580       	99.000      	0.002500    	0.000000    	OPEN  	;3 2 0 1 2024 PEHD110-PN16 60
 2017            	1030            	1031            	63.610      	99.000      	0.025000    	0.000000    	OPEN  	;3 2 0 1 2024 FC110-PN10 60
 2027            	1050            	1069            	57.750      	99.000      	0.025000    	0.000000    	OPEN  	;3 2 0 1 113921 FC110-PN10 60
 2012            	1024            	1072            	73.840      	56.700      	0.025000    	0.000000    	OPEN  	;3 2 0 1 2024 FC63-PN10 60
 2218            	1071            	1112            	2.370       	99.000      	0.002500    	0.000000    	OPEN  	;3 2 0 1 2216 PVC110-PN16 60
 2084            	1071            	1070            	27.020      	99.000      	0.002500    	0.000000    	OPEN  	;3 2 0 1 2216 PVC110-PN16 60
 2094            	1058            	1079            	20.220      	99.000      	0.002500    	0.000000    	OPEN  	;3 2 0 1 2213 PVC110-PN16 60
 2014            	1025            	1011            	47.250      	99.000      	0.025000    	0.000000    	OPEN  	;3 2 0 1 2024 FC110-PN10 60
 2045            	1026            	1091            	16.870      	99.000      	0.002500    	0.000000    	OPEN  	;3 2 0 1 2024 PEHD110-PN16 60
 2067            	1061            	1060            	46.860      	153.000     	0.003000    	0.000000    	OPEN  	;3 2 0 1 2047 FD150 60
 2016            	1026            	1030            	49.030      	99.000      	0.025000    	0.000000    	OPEN  	;3 2 0 1 2024 FC110-PN10 60
 2202            	1103            	1084            	21.460      	99.000      	0.002500    	0.000000    	OPEN  	;3 2 0 1 2024 PEHD110-PN16 60
 2008            	1013            	1023            	131.990     	99.000      	0.002500    	0.000000    	OPEN  	;3 2 0 1 2024 PELD110-PN10 60
 2015            	1011            	1026            	119.360     	99.000      	0.025000    	0.000000    	OPEN  	;3 2 0 1 2024 FC110-PN10 60
 2028            	1050            	1051            	68.380      	56.700      	0.002500    	0.000000    	OPEN  	;3 2 0 1 113921 PVC63-PN10 60
 2031            	1069            	1068            	71.040      	99.000      	0.002500    	0.000000    	OPEN  	;3 2 0 1 113921 PVC110-PN16 60
 2004            	1017            	1018            	123.090     	99.000      	0.002500    	0.000000    	OPEN  	;3 2 0 1 113921 PEHD110-PN16 60
 2005            	1018            	1067            	65.300      	99.000      	0.002500    	0.000000    	OPEN  	;3 2 0 1 113921 PEHD110-PN16 60
 2062            	1029            	1037            	72.740      	56.700      	0.002500    	0.000000    	OPEN  	;3 2 0 1 2047 PVC63-PN10 60
 2082            	1041            	1033            	37.900      	56.700      	0.025000    	0.000000    	OPEN  	;3 2 0 1 2083 FC63-PN10 60
 2083            	1041            	1027            	120.400     	56.700      	0.025000    	0.000000    	OPEN  	;3 2 0 1 2083 FC63-PN10 60
 2018            	1031            	1010            	62.430      	99.000      	0.025000    	0.000000    	OPEN  	;3 2 0 1 2024 FC110-PN10 60
 2024            	1049            	1020            	68.930      	99.000      	0.002500    	0.000000    	OPEN  	;3 2 0 1 2024 PVC110-PN16 60
 2071            	1058            	1057            	111.770     	153.000     	0.003000    	0.000000    	OPEN  	;3 2 0 1 2213 FD150 60
 2055            	1036            	1006            	30.200      	144.000     	0.025000    	0.000000    	OPEN  	;3 2 0 1 2047 FC160-PN10 60
 136             	134             	1003            	35.770      	56.700      	0.002500    	0.000000    	OPEN  	;3 2 0 1 113921 PVC63-PN10 60
 2030            	1003            	1052            	63.240      	56.700      	0.002500    	0.000000    	OPEN  	;3 2 0 1 113921 PVC63-PN10 60
 2048            	1029            	1034            	102.950     	99.000      	0.002500    	0.000000    	OPEN  	;3 2 0 1 2047 PEHD110-PN16 60
 2069            	1005            	1089            	1.920       	153.000     	0.003000    	0.000000    	OPEN  	;3 2 0 1 2069 FD150 60
 2061            	1032            	1009            	136.500     	99.000      	0.025000    	0.000000    	OPEN  	;3 2 0 1 2047 FC110-PN10 60
 113909          	1081            	113908          	105.830     	204.000     	0.003000    	0.000000    	OPEN  	;3 1 0 1 113875 FD200 60
 2097            	1013            	1103            	67.200      	99.000      	0.002500    	0.000000    	OPEN  	;3 2 0 1 2024 PEHD110-PN16 60
 2009            	1023            	1048            	77.760      	56.700      	0.025000    	0.000000    	OPEN  	;3 2 0 1 2024 FC63-PN10 60
 2010            	1023            	1012            	72.840      	99.000      	0.002500    	0.000000    	OPEN  	;3 2 0 1 2024 PEHD110-PN16 60
 2214            	1075            	1111            	5.040       	99.000      	0.025000    	0.000000    	OPEN  	;3 2 0 1 2216 FC110-PN10 60
 2087            	1075            	1070            	112.620     	99.000      	0.025000    	0.000000    	OPEN  	;3 2 0 1 2216 FC110-PN10 60
 140             	138             	1095            	17.810      	99.000      	0.002500    	0.000000    	OPEN  	;3 2 0 1 113921 PVC110-PN16 60
 2207            	1097            	1105_n2a_2      	10.520      	99.000      	0.002500    	0.000000    	OPEN  	;1 4 0 3 2207 PEHD110-PN16 60
 2059            	1028            	1008            	23.750      	99.000      	0.025000    	0.000000    	OPEN  	;3 2 0 1 2047 FC110-PN10 60
 2002            	1014            	1016            	73.770      	99.000      	0.002500    	0.000000    	OPEN  	;3 2 0 1 113921 PEHD110-PN16 60
 2001            	1014            	1015            	21.170      	153.000     	0.003000    	0.000000    	OPEN  	;3 2 0 1 113921 FD150 60
 2060            	1008            	1032            	43.250      	99.000      	0.025000    	0.000000    	OPEN  	;3 2 0 1 2047 FC110-PN10 60
 139             	1004            	138             	58.300      	99.000      	0.002500    	0.000000    	OPEN  	;3 2 0 1 113921 PVC110-PN16 60
 130             	128             	1036            	97.700      	56.700      	0.025000    	0.000000    	OPEN  	;3 2 0 1 2047 FC63-PN10 60
 2081            	1042            	1041            	37.120      	56.700      	0.025000    	0.000000    	OPEN  	;3 2 0 1 2083 FC63-PN10 60
 113905          	113883          	113766          	1.400       	144.000     	0.002500    	0.000000    	OPEN  	;2 4 0 3 113905 VIRTUAL 60
 2099            	1087            	1022            	3.240       	56.700      	0.002500    	0.000000    	OPEN  	;3 2 0 1 2024 PVC63-PN10 60
 2006            	1087            	1067            	106.900     	56.700      	0.002500    	0.000000    	OPEN  	;3 2 0 1 113921 PVC63-PN10 60
 2092            	1080            	1005            	13.520      	204.000     	0.003000    	0.000000    	OPEN  	;3 2 0 1 2069 FD200 60
 2103            	1091            	1027            	2.990       	99.000      	0.002500    	0.000000    	OPEN  	;3 2 0 1 2083 PEHD110-PN16 60
 2213            	1108            	1059            	2.350       	99.000      	0.002500    	0.000000    	OPEN  	;3 2 0 1 2213 PVC110-PN16 60
 2026            	1094            	1050            	124.200     	99.000      	0.002500    	0.000000    	OPEN  	;3 2 0 1 113921 PVC110-PN16 60
 2022            	1112            	1077            	30.370      	99.000      	0.002500    	0.000000    	OPEN  	;3 2 0 1 2024 PVC110-PN16 60
 2035            	1096            	1052            	96.310      	144.000     	0.002500    	0.000000    	OPEN  	;3 2 0 1 113921 PVC160-PN16 60
 2217            	1113            	1071            	1.670       	99.000      	0.025000    	0.000000    	OPEN  	;3 2 0 1 2216 FC110-PN10 60
 2215            	1109            	1074            	3.240       	56.700      	0.002500    	0.000000    	OPEN  	;3 2 0 1 2215 PVC63-PN10 60
 2064            	1082            	1062            	14.750      	56.700      	0.002500    	0.000000    	OPEN  	;3 2 0 1 2047 PVC63-PN10 60
 2068            	1088            	1005            	1.780       	153.000     	0.003000    	0.000000    	OPEN  	;3 2 0 1 2069 FD150 60
 2051            	1114            	1063            	12.490      	56.700      	0.025000    	0.000000    	OPEN  	;3 2 0 1 2088 FC63-PN10 60
 2216            	1110            	1075            	3.430       	99.000      	0.025000    	0.000000    	OPEN  	;3 2 0 1 2216 FC110-PN10 60
 113907          	113880          	113766          	2.090       	99.000      	0.002500    	0.000000    	OPEN  	;1 4 0 3 113907 VIRTUAL 60
 113906          	113766          	113873          	2.630       	204.000     	0.003000    	0.000000    	OPEN  	;3 1 0 1 113875 VIRTUAL 60
 2088            	1086            	1063            	881.120     	56.700      	0.002500    	0.000000    	OPEN  	;3 2 0 1 2088 PVC63-PN10 60
 2046            	1090            	1028            	38.810      	99.000      	0.002500    	0.000000    	OPEN  	;3 2 0 1 2047 PEHD110-PN16 60
 2043            	1093            	1019            	57.820      	99.000      	0.025000    	0.000000    	OPEN  	;3 2 0 1 2042 FC110-PN10 60
 2105            	1093            	1021            	3.220       	99.000      	0.025000    	0.000000    	OPEN  	;3 2 0 1 2024 FC110-PN10 60
 2101            	1089            	1059            	60.450      	153.000     	0.003000    	0.000000    	OPEN  	;3 2 0 1 2213 FD150 60
 2095            	1083_n2a_1      	1106            	36.660      	153.000     	0.003000    	0.000000    	OPEN  	;3 2 0 1 2095 FD150 60
 113884          	1107_n2a_1      	113883          	21.290      	144.000     	0.002500    	0.000000    	OPEN  	;2 4 0 3 113905 PVC160-PN16 60
 113881          	1105_n2a_1      	113880          	15.550      	99.000      	0.002500    	0.000000    	OPEN  	;1 4 0 3 113907 PEHD110-PN16 60
 2089            	1014            	1083_n2a_2      	11.850      	153.000     	0.003000    	0.000000    	OPEN  	;3 2 0 1 113921 FD150 60
 2205            	1101            	1107_n2a_2      	24.320      	144.000     	0.002500    	0.000000    	OPEN  	;2 4 0 3 2205 PVC160-PN16 60
 2079            	1115            	1043            	70.450      	56.700      	0.025000    	0.000000    	CLOSED	;3 2 0 1 2083 FC63-PN10 60
 2220            	1044            	1115            	5.000       	56.700      	0.025000    	0.000000    	CLOSED	;3 2 0 1 2216 FC63-PN10 60

[PUMPS]
;ID              	Node1           	Node2           	Parameters
 1105_n2a        	1105_n2a_2      	1105_n2a_1      	POWER 3	;1 4 0 3 0 PUMP-02
 1105_n2a1       	1105_n2a_2      	1105_n2a_1      	HEAD PUMP_02	;1 4 0 3 0 PUMP-02

[VALVES]
;ID              	Node1           	Node2           	Diameter    	Type	Setting     	MinorLoss   
 1083_n2a        	1083_n2a_2      	1083_n2a_1      	100.000     	PRV 	30.0000     	0.000000    	;3 2 0 1 0 PRV-VALVE150-PN6/16
 1107_n2a        	1107_n2a_2      	1107_n2a_1      	100.000     	FCV 	3.0000      	0.000000    	;2 4 0 3 0 CHK-VALVE150-PN16

[TAGS]

[DEMANDS]
;Junction        	Demand      	Pattern         	Category

[STATUS]
;ID              	Status/Setting
 1105_n2a1       	Closed
 1107_n2a        	Closed

[PATTERNS]
;ID              	Multipliers
;----------          ----------
 PTN-JUNCTION    	0.2000      	0.2000      	0.4000      	0.3000      	0.5000      	0.5000      