[TITLE]
sdf Aug-2014
Sewer system demo project Dec-2013

[OPTIONS]
FLOW_UNITS           CMS
INFILTRATION         CURVE_NUMBER
FLOW_ROUTING         DYNWAVE
START_DATE           01/01/2001
START_TIME           00:00:00
REPORT_START_DATE    01/01/2001
REPORT_START_TIME    00:00:00
END_DATE             01/01/2001
END_TIME             05:00:00
SWEEP_START          01/01
SWEEP_END            12/31
DRY_DAYS             10
REPORT_STEP          00:15:00
WET_STEP             00:05:00
DRY_STEP             01:00:00
ROUTING_STEP         0:00:02 
ALLOW_PONDING        YES
INERTIAL_DAMPING     NONE
VARIABLE_STEP        0.75
LENGTHENING_STEP     0
MIN_SURFAREA         0
NORMAL_FLOW_LIMITED  BOTH
SKIP_STEADY_STATE    NO
FORCE_MAIN_EQUATION  H-W
LINK_OFFSETS         DEPTH
MIN_SLOPE            0
IGNORE_RAINFALL      YES
IGNORE_SNOWMELT      YES
IGNORE_QUALITY       YES

[EVAPORATION]
;;Type       Parameters
;;---------- ----------
CONSTANT     0.0000
DRY_ONLY     NO

[RAINGAGES]
;;               Rain      Time   Snow   Data      
;;Name           Type      Intrvl Catch  Source    
;;-------------- --------- ------ ------ ----------
41               VOLUME    0:05   1.0000 TIMESERIES T100-5m         

[SUBCATCHMENTS]
;;                                                 Total    Pcnt.             Pcnt.    Curb     Snow    
;;Name           Raingage         Outlet           Area     Imperv   Width    Slope    Length   Pack    
;;-------------- ---------------- ---------------- -------- -------- -------- -------- -------- --------
30029            41               10029            0.275643 90.0000  41.1100  18.1085  67.0500  spack_01        
30030            41               10030            0.295895 90.0000  52.7000  13.0801  56.1500  spack_01        
30031            41               10031            0.121294 90.0000  30.2200  12.6305  40.1400  spack_01        
30032            41               10032            0.179721 90.0000  44.7700  11.1038  40.1400  spack_01        
30033            41               10033            0.219874 90.0000  55.2200  5.6902   39.8200  spack_01        
30034            41               10034            0.131316 90.0000  32.9800  4.1007   39.8200  spack_01        
30035            41               10035            0.247223 90.0000  59.4000  4.7022   41.6200  spack_01        
30036            41               10036            0.203814 90.0000  55.8400  7.6052   36.5000  spack_01        
30037            41               10037            0.364029 90.0000  93.9200  6.9054   38.7600  spack_01        
30038            41               10038            0.347967 90.0000  87.3600  10.7699  39.8300  spack_01        
30039            41               10039            0.189758 90.0000  51.6300  10.5476  36.7500  spack_01        
30040            41               10040            0.221029 75.0000  55.9400  7.3046   39.5100  spack_01        
30041            41               10041            0.450320 90.0000  106.3300 6.2251   42.3500  spack_01        
30042            41               10042            0.305802 90.0000  75.8100  5.8961   40.3400  spack_01        
30043            41               10043            0.142615 90.0000  35.4300  4.8582   40.2500  spack_01        
30044            41               10044            0.168557 90.0000  44.8300  5.1787   37.6000  spack_01        
30045            41               10045            0.119668 90.0000  29.4500  5.8303   40.6400  spack_01        
30046            41               10046            0.127353 90.0000  31.9800  3.6985   39.8200  spack_01        
30047            41               10047            0.092237 90.0000  23.1800  4.2790   39.8000  spack_01        
30048            41               10048            0.182975 90.0000  45.1900  6.5784   40.4900  spack_01        
30049            41               10049            0.248776 90.0000  57.5900  4.4087   43.2000  spack_01        
30050            41               10050            0.169513 90.0000  41.9400  2.1786   40.4200  spack_01        
30051            41               10051            0.363703 90.0000  80.6600  3.0250   45.0900  spack_01        
30052            41               10052            0.436783 90.0000  96.7200  5.9957   45.1600  spack_01        
30053            41               10053            0.296098 90.0000  73.4900  17.6509  40.2900  spack_01        
30054            41               10054            0.328662 90.0000  84.5100  15.4318  38.8900  spack_01        
30055            41               10055            0.368615 65.0000  82.2400  11.9286  44.8200  spack_01        
30056            41               10056            0.207522 65.0000  60.1000  12.7961  34.5300  spack_01        
30057            41               10057            0.349293 90.0000  87.4100  12.2943  39.9600  spack_01        
30058            41               10058            0.292487 90.0000  79.2900  12.8049  36.8900  spack_01        
30059            41               10059            0.285528 90.0000  40.2400  17.0856  70.9500  spack_01        
30060            41               10060            0.213486 90.0000  73.1900  7.5658   29.1700  spack_01        
30061            41               10061            0.446930 90.0000  113.1800 4.6876   39.4900  spack_01        
30062            41               10062            0.301836 90.0000  77.2200  4.4818   39.0900  spack_01        
30063            41               10063            0.347671 75.0000  100.0200 7.2350   34.7600  spack_01        
30064            41               10064            0.389672 90.0000  107.0900 4.1347   36.3900  spack_01        
30065            41               10065            0.236537 90.0000  58.2300  3.3808   40.6200  spack_01        
30066            41               10066            0.096058 90.0000  23.6800  8.3773   40.5700  spack_01        
30067            41               10067            0.282427 90.0000  55.6800  2.8008   50.7200  spack_01        
30068            41               10068            0.479874 90.0000  74.3600  5.2404   64.5300  spack_01        
30069            41               10069            0.388793 90.0000  77.3300  5.7805   50.2800  spack_01        
30070            41               10070            0.200705 90.0000  45.2600  4.6240   44.3400  spack_01        
30071            41               10071            0.340331 90.0000  75.0300  5.4666   45.3600  spack_01        
30072            41               10072            0.214087 90.0000  59.4400  4.6356   36.0200  spack_01        
30073            41               10073            0.497497 90.0000  99.6800  5.6039   49.9100  spack_01        
30074            41               10074            0.210345 90.0000  55.3800  6.3309   37.9800  spack_01        
30075            41               10075            0.158723 90.0000  37.6800  7.6695   42.1200  spack_01        
30076            41               10076            0.204544 90.0000  49.9600  5.6915   40.9400  spack_01        
30077            41               10077            0.315027 90.0000  80.0600  4.5152   39.3500  spack_01        
30078            41               10078            0.248021 75.0000  58.9400  7.7963   42.0800  spack_01        
30079            41               10079            0.433624 90.0000  95.7000  4.8780   45.3100  spack_01        
30080            41               10080            0.491906 90.0000  104.9300 5.8053   46.8800  spack_01        
30081            41               10081            0.214471 90.0000  57.6200  6.2913   37.2200  spack_01        
30082            41               10082            0.564237 90.0000  95.2000  7.9965   59.2700  spack_01        
30083            41               10083            0.311324 90.0000  78.0500  7.6874   39.8900  spack_01        
30084            41               10084            0.438060 90.0000  109.6200 5.2487   39.9600  spack_01        
30085            41               10085            0.181098 90.0000  54.9600  6.3745   32.9500  spack_01        
30086            41               10086            0.159440 90.0000  39.7600  2.6630   40.1000  spack_01        
30087            41               10087            0.199993 90.0000  54.6400  7.2836   36.6000  spack_01        
30088            41               10088            0.245666 90.0000  61.6800  4.1484   39.8300  spack_01        
30089            41               10089            0.225026 90.0000  66.7300  6.1220   33.7200  spack_01        
30090            41               10090            0.262195 75.0000  65.0000  5.6169   40.3400  spack_01        
30091            41               10091            0.264232 75.0000  66.3900  5.4325   39.8000  spack_01        
30092            41               10092            0.289867 75.0000  48.0900  5.6111   60.2700  spack_01        
30093            41               10093            0.199958 90.0000  51.0200  3.1470   39.1900  spack_01        
30094            41               10094            0.407746 90.0000  64.5300  5.3732   63.1900  spack_01        
30095            41               10095            0.207788 90.0000  49.2400  6.9865   42.2000  spack_01        
30096            41               10096            0.265398 90.0000  62.3700  5.6536   42.5500  spack_01        
30097            41               10097            0.450753 90.0000  100.3200 6.9473   44.9300  spack_01        
30098            41               10098            0.479067 90.0000  119.2600 7.0426   40.1700  spack_01        
30099            41               10099            0.301908 90.0000  77.8100  5.3541   38.8000  spack_01        
30100            41               10100            0.231212 90.0000  58.0100  5.4836   39.8600  spack_01        
30101            41               10101            0.400510 90.0000  100.6100 5.9577   39.8100  spack_01        
30102            41               10102            0.461790 90.0000  94.8600  7.4533   48.6800  spack_01        
30104            41               10104            0.284283 75.0000  65.1900  8.3727   43.6100  spack_01        
30105            41               10105            0.307728 90.0000  72.9400  5.7999   42.1900  spack_01        
30106            41               10106            0.329928 90.0000  82.5900  4.8459   39.9500  spack_01        
30107            41               10107            0.475570 90.0000  118.1500 8.6827   40.2500  spack_01        
30108            41               10108            0.508687 90.0000  128.6200 7.3511   39.5500  spack_01        
30109            41               10109            0.480734 90.0000  114.0000 5.4519   42.1700  spack_01        
30110            41               10110            0.482741 90.0000  114.8000 5.0689   42.0500  spack_01        
30111            41               10111            0.287251 90.0000  61.0300  11.5859  47.0700  spack_01        
30112            41               10112            0.193824 90.0000  48.6900  6.1221   39.8100  spack_01        
30113            41               10113            0.093449 90.0000  23.8700  13.4757  39.7200  spack_01        
30114            41               10114            0.198306 65.0000  49.5800  11.3285  40.0000  spack_01        
30115            41               10115            0.130505 90.0000  32.6300  6.9264   40.0000  spack_01        
30116            41               10116            0.111764 90.0000  28.0000  10.0066  39.9100  spack_01        
30117            41               10117            0.267865 90.0000  66.8700  12.0249  40.0600  spack_01        
30118            41               10118            0.339122 90.0000  85.3800  4.7181   39.7200  spack_01        
30119            41               10119            0.284529 90.0000  71.9800  8.4210   39.5300  spack_01        
30120            41               10120            0.115603 90.0000  28.9000  4.3079   40.0000  spack_01        
30121            41               10121            0.209377 75.0000  33.2000  4.9386   63.0700  spack_01        
30122            41               10122            0.188566 75.0000  28.9600  3.7039   65.1100  spack_01        
30123            41               10123            0.130375 90.0000  32.7800  2.0611   39.7700  spack_01        
30124            41               10124            0.238701 90.0000  55.5100  9.3379   43.0000  spack_01        
30125            41               10125            0.181577 90.0000  42.2800  3.3237   42.9400  spack_01        
30126            41               10126            0.309780 90.0000  77.0200  5.5943   40.2200  spack_01        
30127            41               10127            0.309059 90.0000  77.5200  5.2998   40.0000  spack_01        
30128            41               10128            0.304227 90.0000  76.1500  4.3620   40.1500  spack_01        
30129            41               10129            0.305568 90.0000  75.9300  4.5961   40.2900  spack_01        
30130            41               10130            0.299609 90.0000  74.8500  9.3117   40.0300  spack_01        
30131            41               10131            0.324343 90.0000  75.2000  6.2891   43.1300  spack_01        
30132            41               10132            0.254653 90.0000  55.3100  3.6056   46.0400  spack_01        
30233            41               10233            0.188038 90.0000  54.6000  8.2749   34.4400  spack_01        
30234            41               10234            0.088399 90.0000  39.1700  2.1046   22.5700  spack_01        
30301            41               10050            35.849368 10.0000  299.4900 26.0136  1197.0000 spack_01        
30302            41               10034            12.469730 15.0000  286.6600 19.1552  435.0000 spack_01        

[SUBAREAS]
;;Subcatchment   N-Imperv   N-Perv     S-Imperv   S-Perv     PctZero    RouteTo    PctRouted 
;;-------------- ---------- ---------- ---------- ---------- ---------- ---------- ----------
30029            0.0130     0.0250     1.7779     0.0000     0.0000     IMPERVIOUS 100.0000  
30030            0.0130     0.0250     2.0851     0.0000     0.0000     IMPERVIOUS 100.0000  
30031            0.0130     0.0250     2.1211     0.0000     0.0000     IMPERVIOUS 100.0000  
30032            0.0130     0.0250     2.2593     0.0000     0.0000     IMPERVIOUS 100.0000  
30033            0.0130     0.0250     3.1351     0.0000     0.0000     IMPERVIOUS 100.0000  
30034            0.0130     0.0250     3.6810     0.0000     0.0000     IMPERVIOUS 100.0000  
30035            0.0130     0.0250     3.4422     0.0000     0.0000     IMPERVIOUS 100.0000  
30036            0.0130     0.0250     2.7197     0.0000     0.0000     IMPERVIOUS 100.0000  
30037            0.0130     0.0250     2.8514     0.0000     0.0000     IMPERVIOUS 100.0000  
30038            0.0130     0.0250     2.2934     0.0000     0.0000     IMPERVIOUS 100.0000  
30039            0.0130     0.0250     2.3170     0.0000     0.0000     IMPERVIOUS 100.0000  
30040            0.0130     0.0250     2.7740     0.0000     0.0000     IMPERVIOUS 100.0000  
30041            0.0130     0.0250     3.0001     0.0000     0.0000     IMPERVIOUS 100.0000  
30042            0.0130     0.0250     3.0810     0.0000     0.0000     IMPERVIOUS 100.0000  
30043            0.0130     0.0250     3.3876     0.0000     0.0000     IMPERVIOUS 100.0000  
30044            0.0130     0.0250     3.2832     0.0000     0.0000     IMPERVIOUS 100.0000  
30045            0.0130     0.0250     3.0980     0.0000     0.0000     IMPERVIOUS 100.0000  
30046            0.0130     0.0250     3.8720     0.0000     0.0000     IMPERVIOUS 100.0000  
30047            0.0130     0.0250     3.6050     0.0000     0.0000     IMPERVIOUS 100.0000  
30048            0.0130     0.0250     2.9200     0.0000     0.0000     IMPERVIOUS 100.0000  
30049            0.0130     0.0250     3.5527     0.0000     0.0000     IMPERVIOUS 100.0000  
30050            0.0130     0.0250     5.0183     0.0000     0.0000     IMPERVIOUS 100.0000  
30051            0.0130     0.0250     4.2728     0.0000     0.0000     IMPERVIOUS 100.0000  
30052            0.0130     0.0250     3.0558     0.0000     0.0000     IMPERVIOUS 100.0000  
30053            0.0130     0.0250     1.8003     0.0000     0.0000     IMPERVIOUS 100.0000  
30054            0.0130     0.0250     1.9228     0.0000     0.0000     IMPERVIOUS 100.0000  
30055            0.0130     0.0250     2.1814     0.0000     0.0000     IMPERVIOUS 100.0000  
30056            0.0130     0.0250     2.1076     0.0000     0.0000     IMPERVIOUS 100.0000  
30057            0.0130     0.0250     2.1494     0.0000     0.0000     IMPERVIOUS 100.0000  
30058            0.0130     0.0250     2.1069     0.0000     0.0000     IMPERVIOUS 100.0000  
30059            0.0130     0.0250     1.8293     0.0000     0.0000     IMPERVIOUS 100.0000  
30060            0.0130     0.0250     2.7266     0.0000     0.0000     IMPERVIOUS 100.0000  
30061            0.0130     0.0250     3.4474     0.0000     0.0000     IMPERVIOUS 100.0000  
30062            0.0130     0.0250     3.5241     0.0000     0.0000     IMPERVIOUS 100.0000  
30063            0.0130     0.0250     2.7870     0.0000     0.0000     IMPERVIOUS 100.0000  
30064            0.0130     0.0250     3.6661     0.0000     0.0000     IMPERVIOUS 100.0000  
30065            0.0130     0.0250     4.0462     0.0000     0.0000     IMPERVIOUS 100.0000  
30066            0.0130     0.0250     2.5938     0.0000     0.0000     IMPERVIOUS 100.0000  
30067            0.0130     0.0250     4.4371     0.0000     0.0000     IMPERVIOUS 100.0000  
30068            0.0130     0.0250     3.2642     0.0000     0.0000     IMPERVIOUS 100.0000  
30069            0.0130     0.0250     3.1110     0.0000     0.0000     IMPERVIOUS 100.0000  
30070            0.0130     0.0250     3.4706     0.0000     0.0000     IMPERVIOUS 100.0000  
30071            0.0130     0.0250     3.1973     0.0000     0.0000     IMPERVIOUS 100.0000  
30072            0.0130     0.0250     3.4663     0.0000     0.0000     IMPERVIOUS 100.0000  
30073            0.0130     0.0250     3.1587     0.0000     0.0000     IMPERVIOUS 100.0000  
30074            0.0130     0.0250     2.9754     0.0000     0.0000     IMPERVIOUS 100.0000  
30075            0.0130     0.0250     2.7085     0.0000     0.0000     IMPERVIOUS 100.0000  
30076            0.0130     0.0250     3.1348     0.0000     0.0000     IMPERVIOUS 100.0000  
30077            0.0130     0.0250     3.5114     0.0000     0.0000     IMPERVIOUS 100.0000  
30078            0.0130     0.0250     2.6868     0.0000     0.0000     IMPERVIOUS 100.0000  
30079            0.0130     0.0250     3.3808     0.0000     0.0000     IMPERVIOUS 100.0000  
30080            0.0130     0.0250     3.1045     0.0000     0.0000     IMPERVIOUS 100.0000  
30081            0.0130     0.0250     2.9846     0.0000     0.0000     IMPERVIOUS 100.0000  
30082            0.0130     0.0250     2.6537     0.0000     0.0000     IMPERVIOUS 100.0000  
30083            0.0130     0.0250     2.7054     0.0000     0.0000     IMPERVIOUS 100.0000  
30084            0.0130     0.0250     3.2617     0.0000     0.0000     IMPERVIOUS 100.0000  
30085            0.0130     0.0250     2.9654     0.0000     0.0000     IMPERVIOUS 100.0000  
30086            0.0130     0.0250     4.5481     0.0000     0.0000     IMPERVIOUS 100.0000  
30087            0.0130     0.0250     2.7779     0.0000     0.0000     IMPERVIOUS 100.0000  
30088            0.0130     0.0250     3.6602     0.0000     0.0000     IMPERVIOUS 100.0000  
30089            0.0130     0.0250     3.0247     0.0000     0.0000     OUTLET    
30090            0.0130     0.0250     3.1551     0.0000     0.0000     IMPERVIOUS 100.0000  
30091            0.0130     0.0250     3.2071     0.0000     0.0000     IMPERVIOUS 100.0000  
30092            0.0130     0.0250     3.1567     0.0000     0.0000     IMPERVIOUS 100.0000  
30093            0.0130     0.0250     4.1908     0.0000     0.0000     IMPERVIOUS 100.0000  
30094            0.0130     0.0250     3.2244     0.0000     0.0000     IMPERVIOUS 100.0000  
30095            0.0130     0.0250     2.8352     0.0000     0.0000     IMPERVIOUS 100.0000  
30096            0.0130     0.0250     3.1450     0.0000     0.0000     IMPERVIOUS 100.0000  
30097            0.0130     0.0250     2.8430     0.0000     0.0000     IMPERVIOUS 100.0000  
30098            0.0130     0.0250     2.8241     0.0000     0.0000     IMPERVIOUS 100.0000  
30099            0.0130     0.0250     3.2301     0.0000     0.0000     IMPERVIOUS 100.0000  
30100            0.0130     0.0250     3.1924     0.0000     0.0000     IMPERVIOUS 100.0000  
30101            0.0130     0.0250     3.0653     0.0000     0.0000     IMPERVIOUS 100.0000  
30102            0.0130     0.0250     2.7467     0.0000     0.0000     IMPERVIOUS 100.0000  
30104            0.0130     0.0250     2.5945     0.0000     0.0000     IMPERVIOUS 100.0000  
30105            0.0130     0.0250     3.1059     0.0000     0.0000     IMPERVIOUS 100.0000  
30106            0.0130     0.0250     3.3918     0.0000     0.0000     IMPERVIOUS 100.0000  
30107            0.0130     0.0250     2.5487     0.0000     0.0000     IMPERVIOUS 100.0000  
30108            0.0130     0.0250     2.7654     0.0000     0.0000     IMPERVIOUS 100.0000  
30109            0.0130     0.0250     3.2015     0.0000     0.0000     IMPERVIOUS 100.0000  
30110            0.0130     0.0250     3.3179     0.0000     0.0000     IMPERVIOUS 100.0000  
30111            0.0130     0.0250     2.2128     0.0000     0.0000     OUTLET    
30112            0.0130     0.0250     3.0247     0.0000     0.0000     IMPERVIOUS 100.0000  
30113            0.0130     0.0250     2.0549     0.0000     0.0000     IMPERVIOUS 100.0000  
30114            0.0130     0.0250     2.2373     0.0000     0.0000     IMPERVIOUS 100.0000  
30115            0.0130     0.0250     2.8472     0.0000     0.0000     IMPERVIOUS 100.0000  
30116            0.0130     0.0250     2.3775     0.0000     0.0000     IMPERVIOUS 100.0000  
30117            0.0130     0.0250     2.1728     0.0000     0.0000     IMPERVIOUS 100.0000  
30118            0.0130     0.0250     3.4365     0.0000     0.0000     IMPERVIOUS 100.0000  
30119            0.0130     0.0250     2.5872     0.0000     0.0000     IMPERVIOUS 100.0000  
30120            0.0130     0.0250     3.5932     0.0000     0.0000     IMPERVIOUS 100.0000  
30121            0.0130     0.0250     3.3605     0.0000     0.0000     IMPERVIOUS 100.0000  
30122            0.0130     0.0250     3.8692     0.0000     0.0000     IMPERVIOUS 100.0000  
30123            0.0130     0.0250     5.1566     0.0000     0.0000     IMPERVIOUS 100.0000  
30124            0.0130     0.0250     2.4595     0.0000     0.0000     IMPERVIOUS 100.0000  
30125            0.0130     0.0250     4.0801     0.0000     0.0000     IMPERVIOUS 100.0000  
30126            0.0130     0.0250     3.1613     0.0000     0.0000     IMPERVIOUS 100.0000  
30127            0.0130     0.0250     3.2462     0.0000     0.0000     IMPERVIOUS 100.0000  
30128            0.0130     0.0250     3.5712     0.0000     0.0000     IMPERVIOUS 100.0000  
30129            0.0130     0.0250     3.4809     0.0000     0.0000     IMPERVIOUS 100.0000  
30130            0.0130     0.0250     2.4629     0.0000     0.0000     IMPERVIOUS 100.0000  
30131            0.0130     0.0250     2.9851     0.0000     0.0000     IMPERVIOUS 100.0000  
30132            0.0130     0.0250     3.9206     0.0000     0.0000     IMPERVIOUS 100.0000  
30233            0.0130     0.0250     2.6095     0.0000     0.0000     IMPERVIOUS 100.0000  
30234            0.0130     0.0250     5.1040     0.0000     0.0000     IMPERVIOUS 100.0000  
30301            0.0130     0.0250     1.4887     0.0000     0.0000     IMPERVIOUS 100.0000  
30302            0.0130     0.0250     1.7296     0.0000     0.0000     IMPERVIOUS 100.0000  

[INFILTRATION]
;;Subcatchment   CurveNum   HydCon     DryTime   
;;-------------- ---------- ---------- ----------
30029            83.0000    0.0000     10.0000   
30030            83.0000    0.0000     10.0000   
30031            83.0000    0.0000     10.0000   
30032            83.0000    0.0000     10.0000   
30033            83.0000    0.0000     10.0000   
30034            83.0000    0.0000     10.0000   
30035            83.0000    0.0000     10.0000   
30036            81.9704    0.0000     10.0000   
30037            83.0000    0.0000     10.0000   
30038            83.0000    0.0000     10.0000   
30039            83.0000    0.0000     10.0000   
30040            79.9355    0.0000     10.0000   
30041            81.0600    0.0000     10.0000   
30042            83.0000    0.0000     10.0000   
30043            83.0000    0.0000     10.0000   
30044            83.0000    0.0000     10.0000   
30045            83.0000    0.0000     10.0000   
30046            83.0000    0.0000     10.0000   
30047            83.0000    0.0000     10.0000   
30048            83.0000    0.0000     10.0000   
30049            83.0000    0.0000     10.0000   
30050            83.0000    0.0000     10.0000   
30051            83.0000    0.0000     10.0000   
30052            83.0000    0.0000     10.0000   
30053            83.9466    0.0000     10.0000   
30054            83.9026    0.0000     10.0000   
30055            88.8614    0.0000     10.0000   
30056            88.3876    0.0000     10.0000   
30057            85.6663    0.0000     10.0000   
30058            84.5201    0.0000     10.0000   
30059            83.0000    0.0000     10.0000   
30060            83.0000    0.0000     10.0000   
30061            83.0000    0.0000     10.0000   
30062            83.0000    0.0000     10.0000   
30063            79.0585    0.0000     10.0000   
30064            83.0000    0.0000     10.0000   
30065            83.0000    0.0000     10.0000   
30066            84.0173    0.0000     10.0000   
30067            83.0000    0.0000     10.0000   
30068            80.8677    0.0000     10.0000   
30069            83.0000    0.0000     10.0000   
30070            83.0000    0.0000     10.0000   
30071            75.7009    0.0000     10.0000   
30072            78.5724    0.0000     10.0000   
30073            83.0000    0.0000     10.0000   
30074            83.0000    0.0000     10.0000   
30075            74.9960    0.0000     10.0000   
30076            85.4406    0.0000     10.0000   
30077            84.1961    0.0000     10.0000   
30078            77.5642    0.0000     10.0000   
30079            83.0000    0.0000     10.0000   
30080            83.0000    0.0000     10.0000   
30081            83.0000    0.0000     10.0000   
30082            83.0000    0.0000     10.0000   
30083            83.0000    0.0000     10.0000   
30084            83.0000    0.0000     10.0000   
30085            83.0000    0.0000     10.0000   
30086            83.0000    0.0000     10.0000   
30087            83.0000    0.0000     10.0000   
30088            83.0000    0.0000     10.0000   
30089            83.0000    0.0000     10.0000   
30090            79.2670    0.0000     10.0000   
30091            79.4252    0.0000     10.0000   
30092            78.7169    0.0000     10.0000   
30093            83.0000    0.0000     10.0000   
30094            83.6638    0.0000     10.0000   
30095            83.0000    0.0000     10.0000   
30096            83.0000    0.0000     10.0000   
30097            83.0000    0.0000     10.0000   
30098            83.0000    0.0000     10.0000   
30099            83.0000    0.0000     10.0000   
30100            83.0000    0.0000     10.0000   
30101            83.0000    0.0000     10.0000   
30102            83.0000    0.0000     10.0000   
30104            80.6849    0.0000     10.0000   
30105            81.6253    0.0000     10.0000   
30106            83.0000    0.0000     10.0000   
30107            83.0000    0.0000     10.0000   
30108            81.2677    0.0000     10.0000   
30109            79.4333    0.0000     10.0000   
30110            82.9110    0.0000     10.0000   
30111            83.0000    0.0000     10.0000   
30112            83.0000    0.0000     10.0000   
30113            84.0924    0.0000     10.0000   
30114            88.2759    0.0000     10.0000   
30115            83.0000    0.0000     10.0000   
30116            83.0000    0.0000     10.0000   
30117            83.0000    0.0000     10.0000   
30118            83.0000    0.0000     10.0000   
30119            83.0000    0.0000     10.0000   
30120            83.0000    0.0000     10.0000   
30121            80.8411    0.0000     10.0000   
30122            80.9119    0.0000     10.0000   
30123            83.0000    0.0000     10.0000   
30124            83.0000    0.0000     10.0000   
30125            83.0000    0.0000     10.0000   
30126            83.0000    0.0000     10.0000   
30127            83.0000    0.0000     10.0000   
30128            83.0000    0.0000     10.0000   
30129            83.0000    0.0000     10.0000   
30130            83.0000    0.0000     10.0000   
30131            83.0000    0.0000     10.0000   
30132            83.0000    0.0000     10.0000   
30233            83.0000    0.0000     10.0000   
30234            83.0000    0.0000     10.0000   
30301            79.5928    0.0000     10.0000   
30302            76.6395    0.0000     10.0000   

[LID_CONTROLS]
;;               Type/Layer Parameters
;;-------------- ---------- ----------
Zfiltr_01        IT
Zfiltr_01        SURFACE    0.0000     0.0000     0.1000     1.0000     5.0000    
Zfiltr_01        STORAGE    12.0000    0.7500     0.0000     6.0000    
Zfiltr_01        DRAIN      0          0.5        0          6         

[LID_USAGE]
;;Subcatchment   LID Process      Number  Area       Width      InitSatur  FromImprv  ToPerv     Report File
;;-------------- ---------------- ------- ---------- ---------- ---------- ---------- ---------- -----------
30057            Zfiltr_01        1       200.000000 1.0000     10.0000    10.0000    1         
