[TITLE]
;INP file created by Giswater, the water management open source tool
;Project name:
;Result name: 		t2
;Export mode: 		BASIC (ONLY MANDATORY NODARC)
;Demand type: 		ESTIMATED
;Pattern method: 	UNIQUE ESTIMATED
;Valve mode: 		INVENTORY VALUES
;Datetime: 			2019-12-27 13:19:28
;User: 				postgres


[JUNCTIONS]
;node_id            elevation           demand              pattern_id
;-------            -------             -------             -------
1001				32.587				0.029364			pattern_02
1002				25.238				0.014036			pattern_02
1003				29.885				0.143745			pattern_02
1004				35.074				0.048418			pattern_02
1005				42.921				0.03189				pattern_02
1006				53.614				0.004236			pattern_02
1008				53.071				0.009109			pattern_02
1009				45.000				16					pattern_hydrant
1010				51.920				0.042418			pattern_02
1011				57.092				0.068255			pattern_02
1012				47.570				16					pattern_03
1013				37.874				0.021455			pattern_02
1014				22.381				0.031836			pattern_02
1015				23.204				0.0226				pattern_02
1016				25.000				0.049782			pattern_02
1017				30.000				0.082382			pattern_02
1018				33.080				0.098709			pattern_02
1019				34.390				0.011455			pattern_02
1020				38.710				0.037873			pattern_02
1021				37.651				0.037873			pattern_02
1022				37.932				0.022455			pattern_02
1023				43.658				0.139855			pattern_02
1024				52.377				0.0942				pattern_02
1025				55.385				0.029745			pattern_02
1026				56.553				0.055527			pattern_02
1027				54.986				0.023273			pattern_02
1028				54.089				0.005745			pattern_02
1029				54.723				0.091691			pattern_02
1030				54.889				0.018236			pattern_02
1031				54.279				0.036091			pattern_02
1032				51.206				0.013855			pattern_02
1033				50.310				0.030164			pattern_02
1034				58.289				0.103345			pattern_02
1035				53.919				0.070782			pattern_02
1036				55.105				0.002582			pattern_02
1037				50.841				0.055527			pattern_02
1038				47.395				0.041073			pattern_02
1039				45.000				0.065255			pattern_02
1040				40.000				0.075618			pattern_02
1041				53.491				0.060909			pattern_02
1042				52.494				0.027945			pattern_02
1043				49.832				0.037255			pattern_02
1044				45.862				0.068855			pattern_02
1045				44.603				0.047891			pattern_02
1046				44.143				0.029673			pattern_02
1047				48.315				0.033945			pattern_02
1048				44.234				0.098673			pattern_02
1049				39.765				0.066927			pattern_02
1050				38.586				0.094764			pattern_02
1051				35.200				0.165455			pattern_02
1052				27.216				0.085764			pattern_02
1053				30.134				0.027873			pattern_02
1054				28.362				16					pattern_hydrant
1055				26.535				0.021018			pattern_02
1056				31.687				0.016945			pattern_02
1057				32.248				0.016945			pattern_02
1058				37.441				0.032018			pattern_02
1059				39.436				0.030018			pattern_02
1060				47.713				0.035891			pattern_02
1061				50.000				0.0118				pattern_02
1062				50.000				0.034473			pattern_02
1063				60.000				0.010018			pattern_02
1064				60.000				0.010018			pattern_02
1065				57.917				0.001327			pattern_02
1066				57.261				0.000564			pattern_02
1067				35.026				0.045782			pattern_02
1068				38.542				0.0472				pattern_02
1069				38.686				0.046345			pattern_02
1070				39.870				0.005491			pattern_02
1071				39.809				0.029873			pattern_02
1072				53.652				0.065382			pattern_02
1073				20.016				0					pattern_02
1074				38.758				0.026891			pattern_02
1075				39.020				0.022673			pattern_02
10761				45.000				0.068855			pattern_02
1077				39.822				0.038636			pattern_02
1079				37.395				0.0035				pattern_02
1080_n2a_1			42.950				0
1080_n2a_2			42.950				0
1081				67.500				0
1082				49.880				0
1083_n2a_1			22.335				0
1083_n2a_2			22.335				0
1084				38.600				0					pattern_02
1086				37.945				0
1087				37.928				0
1088				42.935				0
1089				42.915				0
1090				54.990				0
1091				54.975				0
1092				23.210				0
1093				37.648				0
1094				37.655				0
1095				31.689				0
1096				31.683				0
1103				38.420				0					pattern_02
1105_n2a_1			53.850				0
1105_n2a_2			53.850				0
1106				20.300				0.075				pattern_02
1107_n2a_1			69.150				0
1107_n2a_2			69.150				0
1108				39.400				0
1109				38.760				0
1110				39.050				0
1111				39.030				0
1112				39.790				0
1113				39.810				0
1114				60.020				0
1115				45.855				0
113852				42.500				0					pattern_02
113873				68.250				0					pattern_02
113880				68.250				0					pattern_02
113883				68.250				0					pattern_02
113908				47.000				0					pattern_02
113951_n2a_1		19.690				0
113951_n2a_2		19.690				0
113954				51.500				0					pattern_02
113955				51.500				0					pattern_02
113956				48.000				0
113957				44.200				0					pattern_02
113958				41.650				0					pattern_02
113959				43.640				16					pattern_hydrant
113960				35.970				16					pattern_hydrant
113961				33.210				16					pattern_03
113962				44.770				0					pattern_02
113963				44.710				0					pattern_02
113964				42.770				0					pattern_02
113965				42.000				0.03101				pattern_02
113966				38.700				0.01613				pattern_02
113967				38.770				0					pattern_02
113968				37.820				0					pattern_02
113969				37.290				0					pattern_02
113970				36.970				0					pattern_02
113971				37.060				0					pattern_02
113972				38.140				0.00571				pattern_02
113973				36.270				0.00305				pattern_02
113974				34.000				0.03526				pattern_02
113975				33.280				0					pattern_02
113976				37.840				0					pattern_02
113977				37.310				0					pattern_02
113978				39.990				0					pattern_02
113979				40.250				0					pattern_02
113980				40.750				0					pattern_02
113981				42.210				0					pattern_02
113982				42.680				0					pattern_02
113983				42.660				0					pattern_02
113984				42.470				0					pattern_02
113985				38.120				0.00409				pattern_02
113986				37.160				0.00717				pattern_02
113987				40.030				0					pattern_02
113988				44.210				0.00489				pattern_02
113989				44.230				0					pattern_02
113990				37.900				0.01644				pattern_02
113991				42.470				0					pattern_02
113992				39.900				0					pattern_02
113993				36.660				0					pattern_02
113994				36.530				0					pattern_02
113995				34.620				0.01521				pattern_02
113996				30.740				0.02289				pattern_02
113997				36.810				0					pattern_02
113998				37.100				0					pattern_02
113999				40.100				0					pattern_02
114000				37.610				0.04913				pattern_02
114001				37.260				0					pattern_02
114002				34.780				0.04342				pattern_02
114003				34.650				0.01951				pattern_02
114004				37.040				0					pattern_02
114005				31.840				0.00589				pattern_02
114006				32.340				0.00599				pattern_02
114007				32.240				0.00516				pattern_02
114008				30.960				0.00574				pattern_02
114009				29.700				0					pattern_02
114010				33.780				0.00376				pattern_02
114011				33.070				0.00375				pattern_02
114012				30.660				0.0036				pattern_02
114013				30.240				0.00507				pattern_02
114014				29.750				0.01345				pattern_02
114015				37.400				0					pattern_02
114016				37.070				0.00941				pattern_02
114017				36.830				0					pattern_02
114018				45.200				0					pattern_02
114044				37.750				0
114102				37.980				0					pattern_02
114107				42.690				0					pattern_02
114108				40.130				0					pattern_02
114109				42.560				0					pattern_02
114110				39.920				0					pattern_02
114123				42.280				0					pattern_02
114128				39.420				0					pattern_02
114132				39.740				0					pattern_02
114133				43.400				0.04898				pattern_02
114139				37.850				0
114147				44.800				0
114148				44.470				0
114149				44.150				0
114150				42.690				0
114151				41.990				0
114152				36.940				0
114153				36.320				0
114154				37.040				0
114155				39.940				0
114156				39.240				0
114157				42.520				0
114158				40.260				0
114183				42.640				0
114184				44.540				0
114185				37.850				0
114186				37.150				0
114187				37.350				0
114189				38.090				0
114190				33.210				0
114191				30.160				0
114192				32.140				0
114193				36.810				0
114214				37.670				0
114220				39.980				0
114223				32.080				0.02004				pattern_02
114227				31.040				0					pattern_02
114230				33.580				0					pattern_02
114233				41.020				0					pattern_02
114236				41.160				0.03095				pattern_02
114239				34.000				0.00128				pattern_02
114242				35.010				0.0092				pattern_02
114245				31.100				0.00655				pattern_02
114248				37.500				0.06618				pattern_02
114251				41.280				0.04044				pattern_02
114254				41.650				0
128					54.000				0					pattern_02
131					50.540				0					pattern_02
134					31.250				0					pattern_02
138					32.000				0.055501			pattern_02
41					39.450				0					pattern_02
42					23.350				0					pattern_02

[RESERVOIRS]
;node_id            head                pattern_id
;-------            -------             -------
111111				19.690
1097				53.850
1101				75.000

[TANKS]
;node_id            elevation           initlevel           minlevel            maxlevel            diameter            minvol              curve_id
;-------            -------             -------             -------             -------             -------             -------             -------
113952				81.500				1.0000				0.0000				3.5000				12.0000				0.0000
113766				68.250				1.0000				0.0000				3.5000				12.0000				0.0000

[PIPES]
;arc_id             node_1              node_2              length              diameter            roughness           minorloss           status
;-------            -------             -------             -------             -------             -------             -------             -------
1080_n2a			1080_n2a_1			1080_n2a_2			0.300				204.000				0.014000			0.000000			OPEN
113854				113852				1009				39.749				99.000				0.014000			0.000000			OPEN
113857				1111				113852				94.181				99.000				0.014000			0.000000			OPEN
113875				113873				1081				11.374				204.000				0.014000			0.000000			OPEN
113881				1105_n2a_2			113880				15.549				99.000				0.014000			0.000000			OPEN
113884				1107_n2a_2			113883				21.292				144.000				0.014000			0.000000			OPEN
113905				113883				113766				1.405				99.000				0.014000			0.000000			OPEN
113906				113766				113873				2.632				99.000				0.014000			0.000000			OPEN
113907				113880				113766				2.088				99.000				0.014000			0.000000			OPEN
113909				1081				113908				105.827				204.000				0.014000			0.000000			OPEN
113910				113908				1080_n2a_1			52.864				204.000				0.014000			0.000000			OPEN
113921				1052				42					99.473				144.000				0.014000			0.000000			OPEN
113922				42					1015				26.427				144.000				0.014000			0.000000			OPEN
113935				1074				41					28.996				99.000				0.014000			0.000000			OPEN
113936				41					1108				71.064				99.000				0.014000			0.000000			OPEN
114025				113951_n2a_1		111111				11.999				153.000				0.014000			0.000000			OPEN
114026				113951_n2a_2		113954				19.755				153.000				0.014000			0.000000			OPEN
114027				113955				113956				13.722				153.000				0.014000			0.000000			OPEN
114028				113962				113963				8.460				99.000				0.014000			0.000000			OPEN
114030				113956				113957				19.362				153.000				0.014000			0.000000			OPEN
114032				113963				113964				43.214				56.700				0.014000			0.000000			OPEN
114034				113966				113967				11.206				99.000				0.014000			0.000000			OPEN
114045				113958				113972				57.725				144.000				0.014000			0.000000			OPEN
114046				113963				114018				16.985				99.000				0.014000			0.000000			OPEN
114050				113959				113988				32.339				99.000				0.014000			0.000000			OPEN
114051				113984				113991				10.916				99.000				0.014000			0.000000			OPEN
114052				113988				113987				58.484				82.000				0.014000			0.000000			OPEN
114053				113987				113986				64.430				82.000				0.014000			0.000000			OPEN
114054				113984				113985				52.118				56.700				0.014000			0.000000			OPEN
114056				113991				113990				53.218				82.000				0.014000			0.000000			OPEN
114057				113990				113995				101.177				82.000				0.014000			0.000000			OPEN
114059				113993				113994				14.183				99.000				0.014000			0.000000			OPEN
114061				113996				113997				95.231				56.700				0.014000			0.000000			OPEN
114064				113982				113981				22.914				99.000				0.014000			0.000000			OPEN
114065				113981				113980				34.808				99.000				0.014000			0.000000			OPEN
114066				113980				113979				21.627				99.000				0.014000			0.000000			OPEN
114067				113965				113967				36.679				56.700				0.014000			0.000000			OPEN
114069				113968				113976				10.389				99.000				0.014000			0.000000			OPEN
114071				113968				113979				42.039				99.000				0.014000			0.000000			OPEN
114072				113969				113970				94.652				99.000				0.014000			0.000000			OPEN
114073				113970				113974				52.645				82.000				0.014000			0.000000			OPEN
114076				113973				114010				82.832				144.000				0.014000			0.000000			OPEN
114077				114010				114011				22.627				144.000				0.014000			0.000000			OPEN
114079				114011				114012				85.470				144.000				0.014000			0.000000			OPEN
114082				114013				114014				77.949				144.000				0.014000			0.000000			OPEN
114083				114014				114009				42.642				82.000				0.014000			0.000000			OPEN
114084				114009				114008				45.526				82.000				0.014000			0.000000			OPEN
114085				114008				114007				81.811				82.000				0.014000			0.000000			OPEN
114088				114006				114005				79.604				82.000				0.014000			0.000000			OPEN
114091				113992				113999				15.672				99.000				0.014000			0.000000			OPEN
114092				113998				114000				74.175				82.000				0.014000			0.000000			OPEN
114093				114001				113960				31.344				99.000				0.014000			0.000000			OPEN
114094				113960				114002				45.706				99.000				0.014000			0.000000			OPEN
114095				114002				114004				78.599				82.000				0.014000			0.000000			OPEN
114098				113975				113969				48.116				82.000				0.014000			0.000000			OPEN
114099				114017				114003				75.661				82.000				0.014000			0.000000			OPEN
114101				114044				113971				4.709				99.000				0.014000			0.000000			OPEN
114103				113966				114102				16.037				99.000				0.014000			0.000000			OPEN
114104				114102				114044				2.228				99.000				0.014000			0.000000			OPEN
114106				113971				113970				8.554				99.000				0.014000			0.000000			OPEN
114111				113982				114109				8.583				99.000				0.014000			0.000000			OPEN
114112				113983				114107				8.151				99.000				0.014000			0.000000			OPEN
114116				113989				113988				23.681				99.000				0.014000			0.000000			OPEN
114117				114015				114016				91.320				99.000				0.014000			0.000000			OPEN
114118				113977				113978				89.073				82.000				0.014000			0.000000			OPEN
114119				113977				114004				10.818				99.000				0.014000			0.000000			OPEN
114121				114006				114017				67.714				99.000				0.014000			0.000000			OPEN
114126				113999				114108				77.610				82.000				0.014000			0.000000			OPEN
114127				114108				114110				14.495				99.000				0.014000			0.000000			OPEN
114130				114128				113999				19.177				99.000				0.014000			0.000000			OPEN
114131				114128				114110				78.815				56.700				0.014000			0.000000			OPEN
114134				113978				114132				13.532				99.000				0.014000			0.000000			OPEN
114136				114004				114132				92.238				82.000				0.014000			0.000000			OPEN
114137				114005				114003				73.344				82.000				0.014000			0.000000			OPEN
114138				114018				114133				71.391				56.700				0.014000			0.000000			OPEN
114140				113972				114139				22.120				99.000				0.014000			0.000000			OPEN
114141				114139				114102				2.347				99.000				0.014000			0.000000			OPEN
114145				113954				113952				10.050				153.000				0.014000			0.000000			OPEN
114146				113952				113955				9.595				153.000				0.014000			0.000000			OPEN
114159				113958				114147				60.014				144.000				0.014000			0.000000			OPEN
114160				114147				113962				3.111				144.000				0.014000			0.000000			OPEN
114161				114018				114148				69.420				99.000				0.014000			0.000000			OPEN
114162				114148				113989				3.624				99.000				0.014000			0.000000			OPEN
114163				113989				114149				3.972				99.000				0.014000			0.000000			OPEN
114164				114149				113983				72.212				99.000				0.014000			0.000000			OPEN
114165				113984				114150				3.080				99.000				0.014000			0.000000			OPEN
114166				114150				113959				28.765				99.000				0.014000			0.000000			OPEN
114167				113991				114151				3.145				99.000				0.014000			0.000000			OPEN
114168				114151				113992				80.397				99.000				0.014000			0.000000			OPEN
114169				113992				114152				45.009				99.000				0.014000			0.000000			OPEN
114170				114152				113993				3.974				99.000				0.014000			0.000000			OPEN
114171				113995				114153				71.876				82.000				0.014000			0.000000			OPEN
114172				114153				113993				4.325				82.000				0.014000			0.000000			OPEN
114174				114158				113999				3.796				99.000				0.014000			0.000000			OPEN
114175				113998				114156				69.705				99.000				0.014000			0.000000			OPEN
114176				114156				114128				3.650				99.000				0.014000			0.000000			OPEN
114177				113997				114154				21.795				56.700				0.014000			0.000000			OPEN
114178				114154				113998				3.412				56.700				0.014000			0.000000			OPEN
114179				114000				114155				79.146				82.000				0.014000			0.000000			OPEN
114180				114155				114110				2.998				82.000				0.014000			0.000000			OPEN
114181				114109				114157				3.272				99.000				0.014000			0.000000			OPEN
114182				114157				114123				9.245				99.000				0.014000			0.000000			OPEN
114194				114011				114190				4.384				99.000				0.014000			0.000000			OPEN
114195				114190				113961				47.117				99.000				0.014000			0.000000			OPEN
114196				114012				114191				14.135				144.000				0.014000			0.000000			OPEN
114197				114191				114013				3.729				144.000				0.014000			0.000000			OPEN
114201				114187				113977				3.282				99.000				0.014000			0.000000			OPEN
114202				114004				114193				8.211				99.000				0.014000			0.000000			OPEN
114203				114193				114017				3.195				99.000				0.014000			0.000000			OPEN
114204				113967				114185				87.616				99.000				0.014000			0.000000			OPEN
114205				114185				113968				3.776				99.000				0.014000			0.000000			OPEN
114206				113983				114183				63.886				99.000				0.014000			0.000000			OPEN
114207				114183				113982				2.593				99.000				0.014000			0.000000			OPEN
114208				113962				114184				3.827				99.000				0.014000			0.000000			OPEN
114209				114184				113966				88.578				99.000				0.014000			0.000000			OPEN
114210				113972				114189				2.850				144.000				0.014000			0.000000			OPEN
114212				114007				114192				4.831				99.000				0.014000			0.000000			OPEN
114213				114192				114006				12.430				99.000				0.014000			0.000000			OPEN
114215				113969				114186				3.680				99.000				0.014000			0.000000			OPEN
114216				114186				114015				6.952				99.000				0.014000			0.000000			OPEN
114217				113968				114214				10.711				99.000				0.014000			0.000000			OPEN
114218				114214				113969				4.551				99.000				0.014000			0.000000			OPEN
114219				114132				114001				82.179				99.000				0.014000			0.000000			OPEN
114221				114123				114220				87.980				99.000				0.014000			0.000000			OPEN
114222				114220				113978				4.032				99.000				0.014000			0.000000			OPEN
114224				113994				114223				77.989				99.000				0.014000			0.000000			OPEN
114229				114227				114007				17.713				99.000				0.014000			0.000000			OPEN
114231				113974				114230				45.061				82.000				0.014000			0.000000			OPEN
114232				114230				113975				37.932				82.000				0.014000			0.000000			OPEN
114234				114109				114233				64.561				99.000				0.014000			0.000000			OPEN
114235				114233				114108				27.518				99.000				0.014000			0.000000			OPEN
114237				113964				114236				62.499				56.700				0.014000			0.000000			OPEN
114238				114016				114012				171.247				99.000				0.014000			0.000000			OPEN
114240				114189				114239				34.746				144.000				0.014000			0.000000			OPEN
114241				114239				113973				76.846				144.000				0.014000			0.000000			OPEN
114243				113961				114242				48.483				99.000				0.014000			0.000000			OPEN
114244				114242				114015				29.302				99.000				0.014000			0.000000			OPEN
114246				114013				114245				38.679				99.000				0.014000			0.000000			OPEN
114247				114245				114227				36.787				99.000				0.014000			0.000000			OPEN
114249				113976				114248				45.594				99.000				0.014000			0.000000			OPEN
114250				114248				114187				42.243				99.000				0.014000			0.000000			OPEN
114252				114107				114251				44.036				99.000				0.014000			0.000000			OPEN
114253				114251				114158				39.627				99.000				0.014000			0.000000			OPEN
114255				113957				114254				6.505				153.000				0.014000			0.000000			OPEN
114256				114254				113958				5.070				153.000				0.014000			0.000000			OPEN
114460				1034				1064				151.464				99.000				0.014000			0.000000			OPEN
129					1035				128					12.266				56.700				0.014000			0.000000			OPEN
130					128					1036				97.701				56.700				0.014000			0.000000			OPEN
132					1035				131					77.993				56.700				0.014000			0.000000			OPEN
133					131					1062				22.640				56.700				0.014000			0.000000			OPEN
135					1051				134					81.638				56.700				0.014000			0.000000			OPEN
136					134					1003				35.765				56.700				0.014000			0.000000			OPEN
139					1004				138					58.296				99.000				0.014000			0.000000			OPEN
140					138					1095				17.812				99.000				0.014000			0.000000			OPEN
2001				1014				1015				21.168				153.000				0.014000			0.000000			OPEN
2002				1014				1016				73.767				99.000				0.014000			0.000000			OPEN
2003				1016				1017				136.224				99.000				0.014000			0.000000			OPEN
2004				1017				1018				123.095				99.000				0.014000			0.000000			OPEN
2005				1018				1067				65.297				99.000				0.014000			0.000000			OPEN
2006				1087				1067				106.904				56.700				0.014000			0.000000			OPEN
2007				1022				1013				17.380				99.000				0.014000			0.000000			OPEN
2008				1013				1023				131.994				99.000				0.014000			0.000000			OPEN
2009				1023				1048				77.761				56.700				0.014000			0.000000			OPEN
2010				1023				1012				72.838				99.000				0.014000			0.000000			OPEN
2011				1012				1024				87.569				99.000				0.014000			0.000000			OPEN
2012				1024				1072				73.837				56.700				0.014000			0.000000			OPEN
2013				1024				1025				56.205				99.000				0.014000			0.000000			OPEN
2014				1025				1011				47.255				99.000				0.014000			0.000000			OPEN
2015				1011				1026				119.356				99.000				0.014000			0.000000			OPEN
2016				1026				1030				49.030				99.000				0.014000			0.000000			OPEN
2017				1030				1031				63.607				99.000				0.014000			0.000000			OPEN
2018				1031				1010				62.434				99.000				0.014000			0.000000			OPEN
2019				1010				1047				74.177				99.000				0.014000			0.000000			OPEN
2020				1047				1046				68.739				99.000				0.014000			0.000000			OPEN
2021				1046				1113				68.469				99.000				0.014000			0.000000			OPEN
2022				1112				1077				30.369				99.000				0.014000			0.000000			OPEN
2023				1077				1049				75.942				99.000				0.014000			0.000000			OPEN
2024				1049				1020				68.928				99.000				0.014000			0.000000			OPEN
2025				1020				1021				20.928				99.000				0.014000			0.000000			OPEN
2026				1094				1050				124.200				99.000				0.014000			0.000000			OPEN
2027				1050				1069				57.753				99.000				0.014000			0.000000			OPEN
2028				1050				1051				68.383				56.700				0.014000			0.000000			OPEN
2030				1003				1052				63.244				56.700				0.014000			0.000000			OPEN
2031				1069				1068				71.045				99.000				0.014000			0.000000			OPEN
2032				1068				1004				70.218				99.000				0.014000			0.000000			OPEN
2034				1056				1057				16.936				144.000				0.014000			0.000000			OPEN
2035				1096				1052				96.311				144.000				0.014000			0.000000			OPEN
2037				1092				1002				61.061				99.000				0.014000			0.000000			OPEN
2038				1002				1055				39.830				99.000				0.014000			0.000000			OPEN
2039				1055				1054				47.510				99.000				0.014000			0.000000			OPEN
2040				1054				1053				48.758				99.000				0.014000			0.000000			OPEN
2041				1053				1001				63.050				99.000				0.014000			0.000000			OPEN
2042				1001				1019				66.399				99.000				0.014000			0.000000			OPEN
2043				1093				1019				57.819				99.000				0.014000			0.000000			OPEN
2045				1026				1091				16.874				99.000				0.014000			0.000000			OPEN
2046				1090				1028				38.809				99.000				0.014000			0.000000			OPEN
2047				1028				1029				24.899				99.000				0.014000			0.000000			OPEN
2048				1029				1034				102.947				99.000				0.014000			0.000000			OPEN
2051				1114				1063				12.494				56.700				0.014000			0.000000			OPEN
2052				1064				1065				46.894				144.000				0.014000			0.000000			OPEN
2053				1065				1066				18.585				153.000				0.014000			0.000000			OPEN
2054				1065				1036				56.061				144.000				0.014000			0.000000			OPEN
2055				1036				1006				30.200				144.000				0.014000			0.000000			OPEN
2056				1034				1035				76.842				56.700				0.014000			0.000000			OPEN
2059				1028				1008				23.748				99.000				0.014000			0.000000			OPEN
2060				1008				1032				43.245				99.000				0.014000			0.000000			OPEN
2061				1032				1009				136.504				99.000				0.014000			0.000000			OPEN
2062				1029				1037				72.742				56.700				0.014000			0.000000			OPEN
2063				1037				1038				86.152				56.700				0.014000			0.000000			OPEN
2064				1082				1062				14.745				56.700				0.014000			0.000000			OPEN
2065				1062				1061				71.325				56.700				0.014000			0.000000			OPEN
2066				1006				1061				65.818				153.000				0.014000			0.000000			OPEN
2067				1061				1060				46.862				153.000				0.014000			0.000000			OPEN
2068				1088				1005				1.776				153.000				0.014000			0.000000			OPEN
2069				1005				1089				1.916				153.000				0.014000			0.000000			OPEN
2070				1059				1058				31.143				153.000				0.014000			0.000000			OPEN
2071				1058				1057				111.770				153.000				0.014000			0.000000			OPEN
2072				1038				1039				53.095				56.700				0.014000			0.000000			OPEN
2073				1039				1040				98.216				56.700				0.014000			0.000000			OPEN
2074				1040				1109				33.994				56.700				0.014000			0.000000			OPEN
2076				1074				1110				13.378				99.000				0.014000			0.000000			OPEN
2078				1045				1044				78.480				56.700				0.014000			0.000000			OPEN
2079				1115				1043				70.451				56.700				0.014000			0.000000			OPEN
2080				1043				1042				55.823				56.700				0.014000			0.000000			OPEN
2081				1042				1041				37.123				56.700				0.014000			0.000000			OPEN
2082				1041				1033				37.896				56.700				0.014000			0.000000			OPEN
2083				1041				1027				120.395				56.700				0.014000			0.000000			OPEN
2084				1071				1070				27.024				99.000				0.014000			0.000000			OPEN
20851				1070				10761				99.537				99.000				0.014000			0.000000			OPEN
20861				10761				1044				12.549				99.000				0.014000			0.000000			OPEN
2087				1075				1070				112.618				99.000				0.014000			0.000000			OPEN
2088				1086				1063				881.118				56.700				0.014000			0.000000			OPEN
2089				1083_n2a_2			1014				11.848				153.000				0.014000			0.000000			OPEN
2092				1080_n2a_2			1005				13.518				204.000				0.014000			0.000000			OPEN
2093				1038				1082				90.640				56.700				0.014000			0.000000			OPEN
2094				1058				1079				20.225				99.000				0.014000			0.000000			OPEN
2095				1106				1083_n2a_1			36.656				153.000				0.014000			0.000000			OPEN
2096				1084				1020				8.580				99.000				0.014000			0.000000			OPEN
2097				1013				1103				67.205				99.000				0.014000			0.000000			OPEN
2098				1022				1086				3.584				56.700				0.014000			0.000000			OPEN
2099				1087				1022				3.239				56.700				0.014000			0.000000			OPEN
2100				1060				1088				81.783				153.000				0.014000			0.000000			OPEN
2101				1089				1059				60.450				153.000				0.014000			0.000000			OPEN
2102				1027				1090				2.552				99.000				0.014000			0.000000			OPEN
2103				1091				1027				2.990				99.000				0.014000			0.000000			OPEN
2104				1015				1092				2.697				99.000				0.014000			0.000000			OPEN
2105				1093				1021				3.223				99.000				0.014000			0.000000			OPEN
2106				1021				1094				3.321				99.000				0.014000			0.000000			OPEN
2107				1095				1056				3.523				99.000				0.014000			0.000000			OPEN
2108				1056				1096				3.729				144.000				0.014000			0.000000			OPEN
2202				1103				1084				21.463				99.000				0.014000			0.000000			OPEN
2205				1101				1107_n2a_1			24.318				144.000				0.014000			0.000000			OPEN
2207				1097				1105_n2a_1			10.521				99.000				0.014000			0.000000			OPEN
2208				1073				1106				14.951				153.000				0.014000			0.000000			OPEN
2213				1108				1059				2.353				99.000				0.014000			0.000000			OPEN
2214				1075				1111				5.038				99.000				0.014000			0.000000			OPEN
2215				1109				1074				3.241				56.700				0.014000			0.000000			OPEN
2216				1110				1075				3.426				99.000				0.014000			0.000000			OPEN
2217				1113				1071				1.669				99.000				0.014000			0.000000			OPEN
2218				1071				1112				2.373				99.000				0.014000			0.000000			OPEN
2219				1064				1114				1.897				56.700				0.014000			0.000000			OPEN
2220				1044				1115				5.004				56.700				0.014000			0.000000			OPEN

[PUMPS]
;arc_id             node_1              node_2              power               head                speed               pattern
;-------            -------             -------             -------             -------             -------             -------
113951_n2a			113951_n2a_1		113951_n2a_2		HEAD PUMP_01
1105_n2a1			1105_n2a_1			1105_n2a_2			HEAD PUMP_02
1105_n2a			1105_n2a_1			1105_n2a_2			HEAD PUMP_02

[VALVES]
;arc_id             node_1              node_2              diameter            valv_type           setting             minorloss
;-------            -------             -------             -------             -------             -------             -------
1107_n2a			1107_n2a_1			1107_n2a_2			144.000				FCV					3.0000
1083_n2a			1083_n2a_2			1083_n2a_1			153.000				PRV					30.0000

[TAGS]
;object             node_id             tag
;-------            -------             -------

[DEMANDS]
;node_id            demand              pattern_id          deman_type